* NGSPICE file created from xtea.ext - technology: sky130A

* Black-box entry subcircuit for sky130_fd_sc_hd__decap_12 abstract view
.subckt sky130_fd_sc_hd__decap_12 VGND VPWR
.ends

* Black-box entry subcircuit for sky130_fd_sc_hd__decap_8 abstract view
.subckt sky130_fd_sc_hd__decap_8 VGND VPWR
.ends

* Black-box entry subcircuit for sky130_fd_sc_hd__inv_8 abstract view
.subckt sky130_fd_sc_hd__inv_8 A Y VGND VPWR
.ends

* Black-box entry subcircuit for sky130_fd_sc_hd__diode_2 abstract view
.subckt sky130_fd_sc_hd__diode_2 DIODE VGND VPWR
.ends

* Black-box entry subcircuit for sky130_fd_sc_hd__decap_3 abstract view
.subckt sky130_fd_sc_hd__decap_3 VGND VPWR
.ends

* Black-box entry subcircuit for sky130_fd_sc_hd__fill_2 abstract view
.subckt sky130_fd_sc_hd__fill_2 VGND VPWR
.ends

* Black-box entry subcircuit for sky130_fd_sc_hd__o22a_4 abstract view
.subckt sky130_fd_sc_hd__o22a_4 A1 A2 B1 B2 X VGND VPWR
.ends

* Black-box entry subcircuit for sky130_fd_sc_hd__tapvpwrvgnd_1 abstract view
.subckt sky130_fd_sc_hd__tapvpwrvgnd_1 VGND VPWR
.ends

* Black-box entry subcircuit for sky130_fd_sc_hd__fill_1 abstract view
.subckt sky130_fd_sc_hd__fill_1 VGND VPWR
.ends

* Black-box entry subcircuit for sky130_fd_sc_hd__or2_4 abstract view
.subckt sky130_fd_sc_hd__or2_4 A B X VGND VPWR
.ends

* Black-box entry subcircuit for sky130_fd_sc_hd__a2bb2o_4 abstract view
.subckt sky130_fd_sc_hd__a2bb2o_4 A1_N A2_N B1 B2 X VGND VPWR
.ends

* Black-box entry subcircuit for sky130_fd_sc_hd__decap_4 abstract view
.subckt sky130_fd_sc_hd__decap_4 VGND VPWR
.ends

* Black-box entry subcircuit for sky130_fd_sc_hd__and2_4 abstract view
.subckt sky130_fd_sc_hd__and2_4 A B X VGND VPWR
.ends

* Black-box entry subcircuit for sky130_fd_sc_hd__decap_6 abstract view
.subckt sky130_fd_sc_hd__decap_6 VGND VPWR
.ends

* Black-box entry subcircuit for sky130_fd_sc_hd__nor3_4 abstract view
.subckt sky130_fd_sc_hd__nor3_4 A B C Y VGND VPWR
.ends

* Black-box entry subcircuit for sky130_fd_sc_hd__a21bo_4 abstract view
.subckt sky130_fd_sc_hd__a21bo_4 A1 A2 B1_N X VGND VPWR
.ends

* Black-box entry subcircuit for sky130_fd_sc_hd__dfrtp_4 abstract view
.subckt sky130_fd_sc_hd__dfrtp_4 D Q RESET_B CLK VGND VPWR
.ends

* Black-box entry subcircuit for sky130_fd_sc_hd__a21o_4 abstract view
.subckt sky130_fd_sc_hd__a21o_4 A1 A2 B1 X VGND VPWR
.ends

* Black-box entry subcircuit for sky130_fd_sc_hd__buf_1 abstract view
.subckt sky130_fd_sc_hd__buf_1 A X VGND VPWR
.ends

* Black-box entry subcircuit for sky130_fd_sc_hd__nand2_4 abstract view
.subckt sky130_fd_sc_hd__nand2_4 A B Y VGND VPWR
.ends

* Black-box entry subcircuit for sky130_fd_sc_hd__nor2_4 abstract view
.subckt sky130_fd_sc_hd__nor2_4 A B Y VGND VPWR
.ends

* Black-box entry subcircuit for sky130_fd_sc_hd__xor2_4 abstract view
.subckt sky130_fd_sc_hd__xor2_4 A B X VGND VPWR
.ends

* Black-box entry subcircuit for sky130_fd_sc_hd__a21boi_4 abstract view
.subckt sky130_fd_sc_hd__a21boi_4 A1 A2 B1_N Y VGND VPWR
.ends

* Black-box entry subcircuit for sky130_fd_sc_hd__a32o_4 abstract view
.subckt sky130_fd_sc_hd__a32o_4 A1 A2 A3 B1 B2 X VGND VPWR
.ends

* Black-box entry subcircuit for sky130_fd_sc_hd__a21oi_4 abstract view
.subckt sky130_fd_sc_hd__a21oi_4 A1 A2 B1 Y VGND VPWR
.ends

* Black-box entry subcircuit for sky130_fd_sc_hd__and3_4 abstract view
.subckt sky130_fd_sc_hd__and3_4 A B C X VGND VPWR
.ends

* Black-box entry subcircuit for sky130_fd_sc_hd__a211o_4 abstract view
.subckt sky130_fd_sc_hd__a211o_4 A1 A2 B1 C1 X VGND VPWR
.ends

* Black-box entry subcircuit for sky130_fd_sc_hd__o21a_4 abstract view
.subckt sky130_fd_sc_hd__o21a_4 A1 A2 B1 X VGND VPWR
.ends

* Black-box entry subcircuit for sky130_fd_sc_hd__clkbuf_1 abstract view
.subckt sky130_fd_sc_hd__clkbuf_1 A X VGND VPWR
.ends

* Black-box entry subcircuit for sky130_fd_sc_hd__or4_4 abstract view
.subckt sky130_fd_sc_hd__or4_4 A B C D X VGND VPWR
.ends

* Black-box entry subcircuit for sky130_fd_sc_hd__o21ai_4 abstract view
.subckt sky130_fd_sc_hd__o21ai_4 A1 A2 B1 Y VGND VPWR
.ends

* Black-box entry subcircuit for sky130_fd_sc_hd__nor4_4 abstract view
.subckt sky130_fd_sc_hd__nor4_4 A B C D Y VGND VPWR
.ends

* Black-box entry subcircuit for sky130_fd_sc_hd__a2bb2oi_4 abstract view
.subckt sky130_fd_sc_hd__a2bb2oi_4 A1_N A2_N B1 B2 Y VGND VPWR
.ends

* Black-box entry subcircuit for sky130_fd_sc_hd__or3_4 abstract view
.subckt sky130_fd_sc_hd__or3_4 A B C X VGND VPWR
.ends

* Black-box entry subcircuit for sky130_fd_sc_hd__a32oi_4 abstract view
.subckt sky130_fd_sc_hd__a32oi_4 A1 A2 A3 B1 B2 Y VGND VPWR
.ends

* Black-box entry subcircuit for sky130_fd_sc_hd__clkbuf_16 abstract view
.subckt sky130_fd_sc_hd__clkbuf_16 A X VGND VPWR
.ends

* Black-box entry subcircuit for sky130_fd_sc_hd__and4_4 abstract view
.subckt sky130_fd_sc_hd__and4_4 A B C D X VGND VPWR
.ends

* Black-box entry subcircuit for sky130_fd_sc_hd__xnor2_4 abstract view
.subckt sky130_fd_sc_hd__xnor2_4 A B Y VGND VPWR
.ends

* Black-box entry subcircuit for sky130_fd_sc_hd__o32a_4 abstract view
.subckt sky130_fd_sc_hd__o32a_4 A1 A2 A3 B1 B2 X VGND VPWR
.ends

.subckt xtea all_done clock data_in1[0] data_in1[10] data_in1[11] data_in1[12] data_in1[13]
+ data_in1[14] data_in1[15] data_in1[16] data_in1[17] data_in1[18] data_in1[19] data_in1[1]
+ data_in1[20] data_in1[21] data_in1[22] data_in1[23] data_in1[24] data_in1[25] data_in1[26]
+ data_in1[27] data_in1[28] data_in1[29] data_in1[2] data_in1[30] data_in1[31] data_in1[3]
+ data_in1[4] data_in1[5] data_in1[6] data_in1[7] data_in1[8] data_in1[9] data_in2[0]
+ data_in2[10] data_in2[11] data_in2[12] data_in2[13] data_in2[14] data_in2[15] data_in2[16]
+ data_in2[17] data_in2[18] data_in2[19] data_in2[1] data_in2[20] data_in2[21] data_in2[22]
+ data_in2[23] data_in2[24] data_in2[25] data_in2[26] data_in2[27] data_in2[28] data_in2[29]
+ data_in2[2] data_in2[30] data_in2[31] data_in2[3] data_in2[4] data_in2[5] data_in2[6]
+ data_in2[7] data_in2[8] data_in2[9] data_out1[0] data_out1[10] data_out1[11] data_out1[12]
+ data_out1[13] data_out1[14] data_out1[15] data_out1[16] data_out1[17] data_out1[18]
+ data_out1[19] data_out1[1] data_out1[20] data_out1[21] data_out1[22] data_out1[23]
+ data_out1[24] data_out1[25] data_out1[26] data_out1[27] data_out1[28] data_out1[29]
+ data_out1[2] data_out1[30] data_out1[31] data_out1[3] data_out1[4] data_out1[5]
+ data_out1[6] data_out1[7] data_out1[8] data_out1[9] data_out2[0] data_out2[10] data_out2[11]
+ data_out2[12] data_out2[13] data_out2[14] data_out2[15] data_out2[16] data_out2[17]
+ data_out2[18] data_out2[19] data_out2[1] data_out2[20] data_out2[21] data_out2[22]
+ data_out2[23] data_out2[24] data_out2[25] data_out2[26] data_out2[27] data_out2[28]
+ data_out2[29] data_out2[2] data_out2[30] data_out2[31] data_out2[3] data_out2[4]
+ data_out2[5] data_out2[6] data_out2[7] data_out2[8] data_out2[9] key_in[0] key_in[100]
+ key_in[101] key_in[102] key_in[103] key_in[104] key_in[105] key_in[106] key_in[107]
+ key_in[108] key_in[109] key_in[10] key_in[110] key_in[111] key_in[112] key_in[113]
+ key_in[114] key_in[115] key_in[116] key_in[117] key_in[118] key_in[119] key_in[11]
+ key_in[120] key_in[121] key_in[122] key_in[123] key_in[124] key_in[125] key_in[126]
+ key_in[127] key_in[12] key_in[13] key_in[14] key_in[15] key_in[16] key_in[17] key_in[18]
+ key_in[19] key_in[1] key_in[20] key_in[21] key_in[22] key_in[23] key_in[24] key_in[25]
+ key_in[26] key_in[27] key_in[28] key_in[29] key_in[2] key_in[30] key_in[31] key_in[32]
+ key_in[33] key_in[34] key_in[35] key_in[36] key_in[37] key_in[38] key_in[39] key_in[3]
+ key_in[40] key_in[41] key_in[42] key_in[43] key_in[44] key_in[45] key_in[46] key_in[47]
+ key_in[48] key_in[49] key_in[4] key_in[50] key_in[51] key_in[52] key_in[53] key_in[54]
+ key_in[55] key_in[56] key_in[57] key_in[58] key_in[59] key_in[5] key_in[60] key_in[61]
+ key_in[62] key_in[63] key_in[64] key_in[65] key_in[66] key_in[67] key_in[68] key_in[69]
+ key_in[6] key_in[70] key_in[71] key_in[72] key_in[73] key_in[74] key_in[75] key_in[76]
+ key_in[77] key_in[78] key_in[79] key_in[7] key_in[80] key_in[81] key_in[82] key_in[83]
+ key_in[84] key_in[85] key_in[86] key_in[87] key_in[88] key_in[89] key_in[8] key_in[90]
+ key_in[91] key_in[92] key_in[93] key_in[94] key_in[95] key_in[96] key_in[97] key_in[98]
+ key_in[99] key_in[9] mode reset VPWR VGND
XFILLER_79_391 VGND VPWR sky130_fd_sc_hd__decap_12
XFILLER_39_233 VGND VPWR sky130_fd_sc_hd__decap_8
XFILLER_28_918 VGND VPWR sky130_fd_sc_hd__decap_12
X_3155_ _3155_/A _3155_/Y VGND VPWR sky130_fd_sc_hd__inv_8
XANTENNA__4935__A _4642_/Y VGND VPWR sky130_fd_sc_hd__diode_2
XFILLER_39_277 VGND VPWR sky130_fd_sc_hd__decap_3
XFILLER_67_586 VGND VPWR sky130_fd_sc_hd__decap_8
XFILLER_82_512 VGND VPWR sky130_fd_sc_hd__fill_2
XFILLER_27_428 VGND VPWR sky130_fd_sc_hd__decap_12
XFILLER_55_737 VGND VPWR sky130_fd_sc_hd__fill_2
XFILLER_94_372 VGND VPWR sky130_fd_sc_hd__decap_8
XFILLER_55_748 VGND VPWR sky130_fd_sc_hd__fill_2
XFILLER_94_383 VGND VPWR sky130_fd_sc_hd__fill_2
X_3086_ _2943_/A _4043_/C _3875_/A _3253_/A _3087_/A VGND VPWR sky130_fd_sc_hd__o22a_4
XANTENNA__4654__B _4586_/B VGND VPWR sky130_fd_sc_hd__diode_2
XFILLER_82_545 VGND VPWR sky130_fd_sc_hd__decap_12
XPHY_3109 VGND VPWR sky130_fd_sc_hd__tapvpwrvgnd_1
XFILLER_63_770 VGND VPWR sky130_fd_sc_hd__decap_12
XFILLER_82_589 VGND VPWR sky130_fd_sc_hd__decap_3
XPHY_2408 VGND VPWR sky130_fd_sc_hd__tapvpwrvgnd_1
XPHY_2419 VGND VPWR sky130_fd_sc_hd__tapvpwrvgnd_1
XFILLER_62_280 VGND VPWR sky130_fd_sc_hd__fill_1
XFILLER_51_965 VGND VPWR sky130_fd_sc_hd__decap_8
XFILLER_168_628 VGND VPWR sky130_fd_sc_hd__fill_2
XPHY_1707 VGND VPWR sky130_fd_sc_hd__tapvpwrvgnd_1
XFILLER_11_818 VGND VPWR sky130_fd_sc_hd__fill_1
XANTENNA__4670__A _4527_/X VGND VPWR sky130_fd_sc_hd__diode_2
XPHY_1718 VGND VPWR sky130_fd_sc_hd__tapvpwrvgnd_1
XFILLER_167_127 VGND VPWR sky130_fd_sc_hd__fill_2
XFILLER_22_166 VGND VPWR sky130_fd_sc_hd__decap_8
XPHY_1729 VGND VPWR sky130_fd_sc_hd__tapvpwrvgnd_1
XANTENNA__5196__A2 _4574_/B VGND VPWR sky130_fd_sc_hd__diode_2
X_3988_ _3903_/X _3964_/X _3988_/X VGND VPWR sky130_fd_sc_hd__or2_4
XFILLER_50_497 VGND VPWR sky130_fd_sc_hd__decap_3
XFILLER_164_801 VGND VPWR sky130_fd_sc_hd__decap_12
X_2939_ _2931_/Y _2938_/X _2931_/Y _2938_/X _2939_/X VGND VPWR sky130_fd_sc_hd__a2bb2o_4
XFILLER_136_503 VGND VPWR sky130_fd_sc_hd__decap_12
XFILLER_164_834 VGND VPWR sky130_fd_sc_hd__decap_4
XFILLER_148_385 VGND VPWR sky130_fd_sc_hd__decap_12
XANTENNA__3717__C _3716_/Y VGND VPWR sky130_fd_sc_hd__diode_2
XFILLER_108_227 VGND VPWR sky130_fd_sc_hd__decap_12
X_4609_ _4646_/B _4609_/B _4609_/X VGND VPWR sky130_fd_sc_hd__and2_4
XFILLER_116_260 VGND VPWR sky130_fd_sc_hd__decap_12
XFILLER_132_720 VGND VPWR sky130_fd_sc_hd__decap_8
XFILLER_117_794 VGND VPWR sky130_fd_sc_hd__fill_2
XANTENNA__3201__A1_N _3188_/X VGND VPWR sky130_fd_sc_hd__diode_2
XFILLER_89_111 VGND VPWR sky130_fd_sc_hd__decap_6
XFILLER_117_44 VGND VPWR sky130_fd_sc_hd__fill_2
XFILLER_117_55 VGND VPWR sky130_fd_sc_hd__fill_2
XANTENNA__3733__B _3727_/Y VGND VPWR sky130_fd_sc_hd__diode_2
XFILLER_77_15 VGND VPWR sky130_fd_sc_hd__decap_6
XFILLER_132_764 VGND VPWR sky130_fd_sc_hd__fill_2
XFILLER_117_77 VGND VPWR sky130_fd_sc_hd__decap_12
XFILLER_105_989 VGND VPWR sky130_fd_sc_hd__decap_12
XFILLER_77_306 VGND VPWR sky130_fd_sc_hd__decap_12
XFILLER_104_466 VGND VPWR sky130_fd_sc_hd__fill_2
XFILLER_132_797 VGND VPWR sky130_fd_sc_hd__decap_8
XFILLER_58_520 VGND VPWR sky130_fd_sc_hd__decap_12
XFILLER_120_959 VGND VPWR sky130_fd_sc_hd__decap_12
XANTENNA__3534__B1_N _3507_/X VGND VPWR sky130_fd_sc_hd__diode_2
XANTENNA__5503__CLK _5498_/CLK VGND VPWR sky130_fd_sc_hd__diode_2
XFILLER_58_564 VGND VPWR sky130_fd_sc_hd__decap_12
XFILLER_46_715 VGND VPWR sky130_fd_sc_hd__decap_12
XFILLER_73_501 VGND VPWR sky130_fd_sc_hd__fill_2
XFILLER_100_661 VGND VPWR sky130_fd_sc_hd__decap_12
XANTENNA__3846__A1_N _3844_/X VGND VPWR sky130_fd_sc_hd__diode_2
XFILLER_93_36 VGND VPWR sky130_fd_sc_hd__fill_2
XFILLER_133_98 VGND VPWR sky130_fd_sc_hd__fill_2
XFILLER_46_748 VGND VPWR sky130_fd_sc_hd__decap_12
XFILLER_172_3 VGND VPWR sky130_fd_sc_hd__decap_12
XANTENNA__4564__B _4561_/B VGND VPWR sky130_fd_sc_hd__diode_2
XANTENNA__2890__B1 _5261_/A VGND VPWR sky130_fd_sc_hd__diode_2
XFILLER_60_206 VGND VPWR sky130_fd_sc_hd__decap_8
XFILLER_26_74 VGND VPWR sky130_fd_sc_hd__decap_12
XFILLER_26_483 VGND VPWR sky130_fd_sc_hd__fill_2
XFILLER_60_239 VGND VPWR sky130_fd_sc_hd__decap_4
XPHY_2920 VGND VPWR sky130_fd_sc_hd__tapvpwrvgnd_1
XPHY_2931 VGND VPWR sky130_fd_sc_hd__tapvpwrvgnd_1
XFILLER_158_105 VGND VPWR sky130_fd_sc_hd__decap_12
XPHY_2942 VGND VPWR sky130_fd_sc_hd__tapvpwrvgnd_1
XANTENNA__4919__C1 _4918_/X VGND VPWR sky130_fd_sc_hd__diode_2
XANTENNA__4580__A _5256_/A VGND VPWR sky130_fd_sc_hd__diode_2
XFILLER_14_678 VGND VPWR sky130_fd_sc_hd__decap_6
XFILLER_41_464 VGND VPWR sky130_fd_sc_hd__decap_12
XPHY_2953 VGND VPWR sky130_fd_sc_hd__tapvpwrvgnd_1
XANTENNA__5187__A2 key_in[96] VGND VPWR sky130_fd_sc_hd__diode_2
XPHY_2964 VGND VPWR sky130_fd_sc_hd__tapvpwrvgnd_1
XPHY_2975 VGND VPWR sky130_fd_sc_hd__tapvpwrvgnd_1
XPHY_2986 VGND VPWR sky130_fd_sc_hd__tapvpwrvgnd_1
XPHY_2997 VGND VPWR sky130_fd_sc_hd__tapvpwrvgnd_1
XANTENNA__2812__B _2698_/B VGND VPWR sky130_fd_sc_hd__diode_2
XFILLER_167_672 VGND VPWR sky130_fd_sc_hd__decap_4
XANTENNA__3196__A _3124_/A VGND VPWR sky130_fd_sc_hd__diode_2
XFILLER_167_683 VGND VPWR sky130_fd_sc_hd__decap_4
XFILLER_127_525 VGND VPWR sky130_fd_sc_hd__decap_12
XFILLER_154_311 VGND VPWR sky130_fd_sc_hd__fill_1
XFILLER_6_822 VGND VPWR sky130_fd_sc_hd__fill_2
XFILLER_166_182 VGND VPWR sky130_fd_sc_hd__fill_1
XFILLER_10_884 VGND VPWR sky130_fd_sc_hd__fill_1
XFILLER_5_321 VGND VPWR sky130_fd_sc_hd__decap_12
XFILLER_155_867 VGND VPWR sky130_fd_sc_hd__decap_3
XFILLER_115_709 VGND VPWR sky130_fd_sc_hd__decap_12
XFILLER_138_1008 VGND VPWR sky130_fd_sc_hd__decap_12
XFILLER_6_877 VGND VPWR sky130_fd_sc_hd__decap_8
XFILLER_142_517 VGND VPWR sky130_fd_sc_hd__fill_2
XFILLER_170_837 VGND VPWR sky130_fd_sc_hd__decap_12
XANTENNA__3924__A _3895_/X VGND VPWR sky130_fd_sc_hd__diode_2
XFILLER_123_731 VGND VPWR sky130_fd_sc_hd__fill_1
XFILLER_107_293 VGND VPWR sky130_fd_sc_hd__decap_12
XFILLER_123_764 VGND VPWR sky130_fd_sc_hd__fill_2
XANTENNA__5561__D _4559_/X VGND VPWR sky130_fd_sc_hd__diode_2
XFILLER_150_572 VGND VPWR sky130_fd_sc_hd__decap_4
XFILLER_111_937 VGND VPWR sky130_fd_sc_hd__decap_12
XFILLER_122_274 VGND VPWR sky130_fd_sc_hd__fill_1
XFILLER_68_328 VGND VPWR sky130_fd_sc_hd__decap_8
XANTENNA__3362__C _3362_/C VGND VPWR sky130_fd_sc_hd__diode_2
XFILLER_96_637 VGND VPWR sky130_fd_sc_hd__decap_4
XANTENNA__5111__A2 _5108_/X VGND VPWR sky130_fd_sc_hd__diode_2
XFILLER_3_67 VGND VPWR sky130_fd_sc_hd__fill_2
XFILLER_49_531 VGND VPWR sky130_fd_sc_hd__fill_2
XANTENNA__3122__A1 _4638_/X VGND VPWR sky130_fd_sc_hd__diode_2
XFILLER_77_851 VGND VPWR sky130_fd_sc_hd__decap_3
XANTENNA__3122__B2 _3121_/X VGND VPWR sky130_fd_sc_hd__diode_2
XFILLER_76_361 VGND VPWR sky130_fd_sc_hd__decap_8
XFILLER_92_810 VGND VPWR sky130_fd_sc_hd__decap_12
XFILLER_64_545 VGND VPWR sky130_fd_sc_hd__decap_8
X_4960_ _4947_/X _4950_/X _4960_/X VGND VPWR sky130_fd_sc_hd__and2_4
XFILLER_18_984 VGND VPWR sky130_fd_sc_hd__fill_1
XFILLER_51_206 VGND VPWR sky130_fd_sc_hd__fill_2
XANTENNA__3425__A2 _3421_/X VGND VPWR sky130_fd_sc_hd__diode_2
XFILLER_45_781 VGND VPWR sky130_fd_sc_hd__decap_12
X_3911_ _3861_/X _3891_/X _3864_/Y _3912_/C VGND VPWR sky130_fd_sc_hd__nor3_4
XFILLER_17_494 VGND VPWR sky130_fd_sc_hd__fill_2
X_4891_ _4891_/A _4889_/Y _4890_/X _4891_/Y VGND VPWR sky130_fd_sc_hd__nor3_4
XANTENNA__4490__A _4269_/A VGND VPWR sky130_fd_sc_hd__diode_2
X_3842_ _3721_/Y _3841_/X _3842_/X VGND VPWR sky130_fd_sc_hd__and2_4
XFILLER_60_784 VGND VPWR sky130_fd_sc_hd__decap_3
X_3773_ _3769_/Y _3771_/X _3819_/A _3773_/X VGND VPWR sky130_fd_sc_hd__a21bo_4
XANTENNA__2722__B _2722_/B VGND VPWR sky130_fd_sc_hd__diode_2
XFILLER_121_1001 VGND VPWR sky130_fd_sc_hd__decap_12
XANTENNA__2936__A1 _4637_/X VGND VPWR sky130_fd_sc_hd__diode_2
XFILLER_146_823 VGND VPWR sky130_fd_sc_hd__fill_1
X_5512_ _5220_/X _3588_/A _4348_/X _5456_/CLK VGND VPWR sky130_fd_sc_hd__dfrtp_4
XANTENNA__2936__B2 _2935_/X VGND VPWR sky130_fd_sc_hd__diode_2
X_2724_ _2723_/A _2723_/B _2776_/A _2728_/A VGND VPWR sky130_fd_sc_hd__a21o_4
XFILLER_157_171 VGND VPWR sky130_fd_sc_hd__decap_12
XFILLER_9_693 VGND VPWR sky130_fd_sc_hd__decap_6
XFILLER_8_181 VGND VPWR sky130_fd_sc_hd__decap_3
X_5443_ _5443_/D _5443_/Q _4430_/X _5469_/CLK VGND VPWR sky130_fd_sc_hd__dfrtp_4
XANTENNA__4689__A1 _5356_/C VGND VPWR sky130_fd_sc_hd__diode_2
XANTENNA__4689__B2 _4688_/X VGND VPWR sky130_fd_sc_hd__diode_2
XFILLER_161_837 VGND VPWR sky130_fd_sc_hd__fill_1
XANTENNA__3834__A _3827_/X VGND VPWR sky130_fd_sc_hd__diode_2
X_5374_ _5374_/D data_out1[4] _4512_/X _5574_/CLK VGND VPWR sky130_fd_sc_hd__dfrtp_4
XANTENNA__4649__B _4523_/A VGND VPWR sky130_fd_sc_hd__diode_2
XFILLER_160_369 VGND VPWR sky130_fd_sc_hd__fill_1
XANTENNA__5526__CLK _5413_/CLK VGND VPWR sky130_fd_sc_hd__diode_2
XFILLER_141_550 VGND VPWR sky130_fd_sc_hd__decap_4
XFILLER_114_764 VGND VPWR sky130_fd_sc_hd__decap_12
X_4325_ _4324_/A _4325_/X VGND VPWR sky130_fd_sc_hd__buf_1
XANTENNA__5471__D _5089_/X VGND VPWR sky130_fd_sc_hd__diode_2
XANTENNA__3645__A2_N _3644_/X VGND VPWR sky130_fd_sc_hd__diode_2
XFILLER_59_306 VGND VPWR sky130_fd_sc_hd__fill_2
XFILLER_87_615 VGND VPWR sky130_fd_sc_hd__fill_2
XFILLER_101_403 VGND VPWR sky130_fd_sc_hd__decap_12
XFILLER_141_594 VGND VPWR sky130_fd_sc_hd__decap_12
XFILLER_101_425 VGND VPWR sky130_fd_sc_hd__fill_2
X_4256_ _4256_/A _4658_/X _4256_/X VGND VPWR sky130_fd_sc_hd__or2_4
XFILLER_102_959 VGND VPWR sky130_fd_sc_hd__decap_12
X_3207_ _3143_/C _3166_/B _3207_/X VGND VPWR sky130_fd_sc_hd__and2_4
XANTENNA__4665__A _4664_/X VGND VPWR sky130_fd_sc_hd__diode_2
XFILLER_67_350 VGND VPWR sky130_fd_sc_hd__decap_12
X_4187_ _4073_/X _4187_/B _4187_/Y VGND VPWR sky130_fd_sc_hd__nand2_4
XFILLER_68_884 VGND VPWR sky130_fd_sc_hd__fill_1
XANTENNA__4861__A1 _5548_/Q VGND VPWR sky130_fd_sc_hd__diode_2
XFILLER_83_832 VGND VPWR sky130_fd_sc_hd__fill_2
XFILLER_67_383 VGND VPWR sky130_fd_sc_hd__decap_12
X_3138_ _3135_/X _3137_/Y _3138_/X VGND VPWR sky130_fd_sc_hd__and2_4
XFILLER_82_320 VGND VPWR sky130_fd_sc_hd__decap_12
XFILLER_55_556 VGND VPWR sky130_fd_sc_hd__fill_2
XFILLER_55_567 VGND VPWR sky130_fd_sc_hd__decap_12
XFILLER_103_68 VGND VPWR sky130_fd_sc_hd__fill_2
X_3069_ _3069_/A _3068_/Y _3071_/B VGND VPWR sky130_fd_sc_hd__nor2_4
XFILLER_24_910 VGND VPWR sky130_fd_sc_hd__decap_12
XFILLER_70_515 VGND VPWR sky130_fd_sc_hd__decap_4
XANTENNA__4613__B2 _4610_/X VGND VPWR sky130_fd_sc_hd__diode_2
XFILLER_23_420 VGND VPWR sky130_fd_sc_hd__decap_3
XPHY_905 VGND VPWR sky130_fd_sc_hd__tapvpwrvgnd_1
XFILLER_42_239 VGND VPWR sky130_fd_sc_hd__fill_2
XPHY_2205 VGND VPWR sky130_fd_sc_hd__tapvpwrvgnd_1
XPHY_916 VGND VPWR sky130_fd_sc_hd__tapvpwrvgnd_1
XPHY_2216 VGND VPWR sky130_fd_sc_hd__tapvpwrvgnd_1
XPHY_927 VGND VPWR sky130_fd_sc_hd__tapvpwrvgnd_1
XPHY_938 VGND VPWR sky130_fd_sc_hd__tapvpwrvgnd_1
XPHY_2227 VGND VPWR sky130_fd_sc_hd__tapvpwrvgnd_1
XFILLER_23_453 VGND VPWR sky130_fd_sc_hd__decap_12
XPHY_949 VGND VPWR sky130_fd_sc_hd__tapvpwrvgnd_1
XPHY_2238 VGND VPWR sky130_fd_sc_hd__tapvpwrvgnd_1
XPHY_1504 VGND VPWR sky130_fd_sc_hd__tapvpwrvgnd_1
XPHY_2249 VGND VPWR sky130_fd_sc_hd__tapvpwrvgnd_1
XANTENNA__2913__A _2913_/A VGND VPWR sky130_fd_sc_hd__diode_2
XFILLER_11_615 VGND VPWR sky130_fd_sc_hd__decap_6
XPHY_1515 VGND VPWR sky130_fd_sc_hd__tapvpwrvgnd_1
XPHY_1526 VGND VPWR sky130_fd_sc_hd__tapvpwrvgnd_1
XPHY_1537 VGND VPWR sky130_fd_sc_hd__tapvpwrvgnd_1
XANTENNA__3728__B _3685_/X VGND VPWR sky130_fd_sc_hd__diode_2
XFILLER_10_125 VGND VPWR sky130_fd_sc_hd__decap_12
XPHY_1548 VGND VPWR sky130_fd_sc_hd__tapvpwrvgnd_1
XPHY_1559 VGND VPWR sky130_fd_sc_hd__tapvpwrvgnd_1
XFILLER_149_672 VGND VPWR sky130_fd_sc_hd__decap_12
XFILLER_6_107 VGND VPWR sky130_fd_sc_hd__fill_2
XFILLER_137_845 VGND VPWR sky130_fd_sc_hd__decap_8
XFILLER_12_32 VGND VPWR sky130_fd_sc_hd__fill_2
XFILLER_109_536 VGND VPWR sky130_fd_sc_hd__fill_2
XFILLER_12_43 VGND VPWR sky130_fd_sc_hd__fill_2
XFILLER_164_642 VGND VPWR sky130_fd_sc_hd__decap_12
XFILLER_148_193 VGND VPWR sky130_fd_sc_hd__fill_2
XFILLER_128_32 VGND VPWR sky130_fd_sc_hd__decap_12
XFILLER_12_76 VGND VPWR sky130_fd_sc_hd__decap_12
XFILLER_163_141 VGND VPWR sky130_fd_sc_hd__fill_2
XFILLER_163_152 VGND VPWR sky130_fd_sc_hd__decap_4
XFILLER_128_54 VGND VPWR sky130_fd_sc_hd__decap_8
XFILLER_3_803 VGND VPWR sky130_fd_sc_hd__decap_12
XFILLER_164_686 VGND VPWR sky130_fd_sc_hd__decap_3
XFILLER_151_303 VGND VPWR sky130_fd_sc_hd__fill_2
XANTENNA__3744__A _3743_/X VGND VPWR sky130_fd_sc_hd__diode_2
XFILLER_151_314 VGND VPWR sky130_fd_sc_hd__fill_2
XFILLER_136_388 VGND VPWR sky130_fd_sc_hd__fill_2
XFILLER_163_196 VGND VPWR sky130_fd_sc_hd__decap_12
XANTENNA__4559__B _4557_/B VGND VPWR sky130_fd_sc_hd__diode_2
XFILLER_105_731 VGND VPWR sky130_fd_sc_hd__fill_1
XFILLER_2_335 VGND VPWR sky130_fd_sc_hd__fill_1
XFILLER_105_742 VGND VPWR sky130_fd_sc_hd__decap_4
XFILLER_88_69 VGND VPWR sky130_fd_sc_hd__decap_12
XANTENNA__5381__D _4761_/X VGND VPWR sky130_fd_sc_hd__diode_2
XFILLER_77_147 VGND VPWR sky130_fd_sc_hd__decap_12
XANTENNA__4575__A _4518_/X VGND VPWR sky130_fd_sc_hd__diode_2
XFILLER_19_715 VGND VPWR sky130_fd_sc_hd__decap_12
XFILLER_92_117 VGND VPWR sky130_fd_sc_hd__fill_2
XFILLER_101_981 VGND VPWR sky130_fd_sc_hd__fill_2
XFILLER_19_737 VGND VPWR sky130_fd_sc_hd__fill_2
XFILLER_92_128 VGND VPWR sky130_fd_sc_hd__decap_4
XANTENNA__2863__B1 _2861_/X VGND VPWR sky130_fd_sc_hd__diode_2
XFILLER_37_62 VGND VPWR sky130_fd_sc_hd__decap_6
XFILLER_37_84 VGND VPWR sky130_fd_sc_hd__decap_3
XFILLER_74_898 VGND VPWR sky130_fd_sc_hd__decap_12
XANTENNA__4604__A1 _5443_/Q VGND VPWR sky130_fd_sc_hd__diode_2
XFILLER_33_217 VGND VPWR sky130_fd_sc_hd__decap_12
XFILLER_15_921 VGND VPWR sky130_fd_sc_hd__fill_2
XFILLER_61_537 VGND VPWR sky130_fd_sc_hd__fill_2
XFILLER_61_559 VGND VPWR sky130_fd_sc_hd__fill_2
XFILLER_18_1004 VGND VPWR sky130_fd_sc_hd__decap_3
XANTENNA__4080__A2 _4055_/Y VGND VPWR sky130_fd_sc_hd__diode_2
XFILLER_159_414 VGND VPWR sky130_fd_sc_hd__decap_12
XFILLER_42_762 VGND VPWR sky130_fd_sc_hd__fill_1
XFILLER_30_913 VGND VPWR sky130_fd_sc_hd__decap_12
XFILLER_15_998 VGND VPWR sky130_fd_sc_hd__fill_2
XFILLER_41_250 VGND VPWR sky130_fd_sc_hd__fill_2
XPHY_2750 VGND VPWR sky130_fd_sc_hd__tapvpwrvgnd_1
XFILLER_42_784 VGND VPWR sky130_fd_sc_hd__decap_8
XFILLER_53_83 VGND VPWR sky130_fd_sc_hd__decap_12
XPHY_2761 VGND VPWR sky130_fd_sc_hd__tapvpwrvgnd_1
XFILLER_41_283 VGND VPWR sky130_fd_sc_hd__fill_2
XPHY_2772 VGND VPWR sky130_fd_sc_hd__tapvpwrvgnd_1
XANTENNA__3638__B _3638_/B VGND VPWR sky130_fd_sc_hd__diode_2
XPHY_2783 VGND VPWR sky130_fd_sc_hd__tapvpwrvgnd_1
XFILLER_169_94 VGND VPWR sky130_fd_sc_hd__decap_12
XPHY_2794 VGND VPWR sky130_fd_sc_hd__tapvpwrvgnd_1
XANTENNA__5556__D _4553_/X VGND VPWR sky130_fd_sc_hd__diode_2
XFILLER_168_992 VGND VPWR sky130_fd_sc_hd__decap_12
XFILLER_139_171 VGND VPWR sky130_fd_sc_hd__decap_12
XANTENNA__5549__CLK _5547_/CLK VGND VPWR sky130_fd_sc_hd__diode_2
XANTENNA__3591__B2 _3590_/X VGND VPWR sky130_fd_sc_hd__diode_2
XFILLER_154_152 VGND VPWR sky130_fd_sc_hd__fill_1
XFILLER_154_163 VGND VPWR sky130_fd_sc_hd__fill_2
XFILLER_115_517 VGND VPWR sky130_fd_sc_hd__fill_2
XANTENNA__5547__RESET_B _4306_/X VGND VPWR sky130_fd_sc_hd__diode_2
XFILLER_154_174 VGND VPWR sky130_fd_sc_hd__fill_2
XANTENNA__3654__A _3615_/A VGND VPWR sky130_fd_sc_hd__diode_2
XANTENNA__3738__A1_N _3720_/Y VGND VPWR sky130_fd_sc_hd__diode_2
XFILLER_142_325 VGND VPWR sky130_fd_sc_hd__decap_8
XFILLER_5_184 VGND VPWR sky130_fd_sc_hd__fill_2
XANTENNA__5119__A2_N _5118_/X VGND VPWR sky130_fd_sc_hd__diode_2
XFILLER_170_678 VGND VPWR sky130_fd_sc_hd__decap_12
XFILLER_123_550 VGND VPWR sky130_fd_sc_hd__fill_2
XFILLER_69_604 VGND VPWR sky130_fd_sc_hd__fill_2
XFILLER_69_615 VGND VPWR sky130_fd_sc_hd__decap_12
XFILLER_151_892 VGND VPWR sky130_fd_sc_hd__decap_4
X_4110_ _4109_/X _4152_/A VGND VPWR sky130_fd_sc_hd__inv_8
XFILLER_78_80 VGND VPWR sky130_fd_sc_hd__fill_2
XFILLER_97_957 VGND VPWR sky130_fd_sc_hd__decap_12
X_5090_ _5472_/Q _5090_/Y VGND VPWR sky130_fd_sc_hd__inv_8
XFILLER_111_745 VGND VPWR sky130_fd_sc_hd__decap_12
XFILLER_68_158 VGND VPWR sky130_fd_sc_hd__fill_1
X_4041_ _3974_/A _4041_/B _4041_/C _4041_/Y VGND VPWR sky130_fd_sc_hd__nor3_4
XANTENNA__4485__A _4483_/X VGND VPWR sky130_fd_sc_hd__diode_2
XFILLER_37_501 VGND VPWR sky130_fd_sc_hd__fill_2
XFILLER_65_810 VGND VPWR sky130_fd_sc_hd__fill_1
XFILLER_83_117 VGND VPWR sky130_fd_sc_hd__fill_1
XANTENNA__3820__C _3774_/X VGND VPWR sky130_fd_sc_hd__diode_2
XFILLER_37_534 VGND VPWR sky130_fd_sc_hd__fill_2
XANTENNA__2717__B _2717_/B VGND VPWR sky130_fd_sc_hd__diode_2
XFILLER_92_640 VGND VPWR sky130_fd_sc_hd__fill_1
XFILLER_92_662 VGND VPWR sky130_fd_sc_hd__fill_2
XFILLER_80_813 VGND VPWR sky130_fd_sc_hd__fill_2
XFILLER_91_161 VGND VPWR sky130_fd_sc_hd__fill_1
XFILLER_91_172 VGND VPWR sky130_fd_sc_hd__fill_1
X_4943_ _4943_/A _4943_/Y VGND VPWR sky130_fd_sc_hd__inv_8
XANTENNA__4932__B _4922_/X VGND VPWR sky130_fd_sc_hd__diode_2
XANTENNA__3829__A _3829_/A VGND VPWR sky130_fd_sc_hd__diode_2
XANTENNA__2733__A _2733_/A VGND VPWR sky130_fd_sc_hd__diode_2
XFILLER_33_773 VGND VPWR sky130_fd_sc_hd__fill_1
X_4874_ _4874_/A _4873_/Y _4874_/X VGND VPWR sky130_fd_sc_hd__xor2_4
XFILLER_21_935 VGND VPWR sky130_fd_sc_hd__fill_2
XFILLER_60_581 VGND VPWR sky130_fd_sc_hd__decap_8
XFILLER_166_929 VGND VPWR sky130_fd_sc_hd__decap_8
XFILLER_20_434 VGND VPWR sky130_fd_sc_hd__decap_4
X_3825_ _3815_/Y _3824_/Y _3815_/Y _3824_/Y _3825_/X VGND VPWR sky130_fd_sc_hd__a2bb2o_4
XANTENNA__5466__D _5022_/Y VGND VPWR sky130_fd_sc_hd__diode_2
XFILLER_165_428 VGND VPWR sky130_fd_sc_hd__fill_2
X_3756_ _2796_/X _3755_/X _2796_/X _3755_/X _3756_/X VGND VPWR sky130_fd_sc_hd__a2bb2o_4
XANTENNA__3031__B1 _2714_/A VGND VPWR sky130_fd_sc_hd__diode_2
XFILLER_146_642 VGND VPWR sky130_fd_sc_hd__decap_3
XFILLER_118_333 VGND VPWR sky130_fd_sc_hd__decap_3
XANTENNA__2947__A1_N _2939_/X VGND VPWR sky130_fd_sc_hd__diode_2
XFILLER_119_867 VGND VPWR sky130_fd_sc_hd__fill_2
XANTENNA__5244__A1_N _5227_/Y VGND VPWR sky130_fd_sc_hd__diode_2
X_2707_ _2707_/A key_in[71] _2707_/X VGND VPWR sky130_fd_sc_hd__or2_4
XFILLER_161_601 VGND VPWR sky130_fd_sc_hd__fill_1
X_3687_ _3685_/X _3686_/Y _3687_/X VGND VPWR sky130_fd_sc_hd__or2_4
XFILLER_134_837 VGND VPWR sky130_fd_sc_hd__decap_12
XANTENNA__3564__A _3564_/A VGND VPWR sky130_fd_sc_hd__diode_2
XFILLER_106_528 VGND VPWR sky130_fd_sc_hd__decap_3
X_5426_ _5426_/D data_out2[24] _4451_/X _5424_/CLK VGND VPWR sky130_fd_sc_hd__dfrtp_4
XFILLER_145_196 VGND VPWR sky130_fd_sc_hd__decap_12
XANTENNA__3283__B _3282_/X VGND VPWR sky130_fd_sc_hd__diode_2
X_5357_ _5323_/X _5347_/Y _5357_/X VGND VPWR sky130_fd_sc_hd__or2_4
XFILLER_99_261 VGND VPWR sky130_fd_sc_hd__decap_12
XFILLER_160_188 VGND VPWR sky130_fd_sc_hd__decap_12
X_4308_ _4305_/A _4308_/X VGND VPWR sky130_fd_sc_hd__buf_1
XFILLER_102_745 VGND VPWR sky130_fd_sc_hd__fill_2
XFILLER_141_391 VGND VPWR sky130_fd_sc_hd__fill_2
X_5288_ _5288_/A _2799_/A VGND VPWR sky130_fd_sc_hd__inv_8
XFILLER_88_979 VGND VPWR sky130_fd_sc_hd__decap_3
XFILLER_75_607 VGND VPWR sky130_fd_sc_hd__decap_3
XFILLER_59_169 VGND VPWR sky130_fd_sc_hd__fill_1
XFILLER_101_255 VGND VPWR sky130_fd_sc_hd__fill_2
XFILLER_114_23 VGND VPWR sky130_fd_sc_hd__decap_8
XANTENNA__4395__A _4390_/X VGND VPWR sky130_fd_sc_hd__diode_2
X_4239_ _3397_/Y _3556_/Y _3397_/Y _3556_/Y _4239_/X VGND VPWR sky130_fd_sc_hd__a2bb2o_4
XFILLER_101_266 VGND VPWR sky130_fd_sc_hd__fill_2
XANTENNA__2908__A _2832_/A VGND VPWR sky130_fd_sc_hd__diode_2
XFILLER_28_501 VGND VPWR sky130_fd_sc_hd__decap_12
XFILLER_87_489 VGND VPWR sky130_fd_sc_hd__decap_8
XANTENNA__3637__A2 _5520_/Q VGND VPWR sky130_fd_sc_hd__diode_2
XFILLER_68_681 VGND VPWR sky130_fd_sc_hd__fill_2
XFILLER_74_117 VGND VPWR sky130_fd_sc_hd__decap_12
XFILLER_96_990 VGND VPWR sky130_fd_sc_hd__fill_2
XFILLER_114_45 VGND VPWR sky130_fd_sc_hd__decap_12
XFILLER_74_139 VGND VPWR sky130_fd_sc_hd__fill_2
XANTENNA__2845__B1 _2844_/Y VGND VPWR sky130_fd_sc_hd__diode_2
XFILLER_167_1001 VGND VPWR sky130_fd_sc_hd__decap_12
XFILLER_28_556 VGND VPWR sky130_fd_sc_hd__fill_2
XFILLER_28_567 VGND VPWR sky130_fd_sc_hd__decap_12
XFILLER_71_802 VGND VPWR sky130_fd_sc_hd__decap_3
XFILLER_55_364 VGND VPWR sky130_fd_sc_hd__fill_2
XFILLER_83_684 VGND VPWR sky130_fd_sc_hd__decap_4
XFILLER_82_183 VGND VPWR sky130_fd_sc_hd__fill_2
XFILLER_130_44 VGND VPWR sky130_fd_sc_hd__decap_8
XANTENNA__4598__B1 _4597_/Y VGND VPWR sky130_fd_sc_hd__diode_2
XANTENNA__4842__B _4842_/B VGND VPWR sky130_fd_sc_hd__diode_2
XPHY_702 VGND VPWR sky130_fd_sc_hd__tapvpwrvgnd_1
XPHY_713 VGND VPWR sky130_fd_sc_hd__tapvpwrvgnd_1
XPHY_2002 VGND VPWR sky130_fd_sc_hd__tapvpwrvgnd_1
XANTENNA__4062__A2 _4058_/X VGND VPWR sky130_fd_sc_hd__diode_2
XPHY_2013 VGND VPWR sky130_fd_sc_hd__tapvpwrvgnd_1
XPHY_724 VGND VPWR sky130_fd_sc_hd__tapvpwrvgnd_1
XFILLER_12_902 VGND VPWR sky130_fd_sc_hd__decap_4
XANTENNA__3739__A _5292_/X VGND VPWR sky130_fd_sc_hd__diode_2
XPHY_2024 VGND VPWR sky130_fd_sc_hd__tapvpwrvgnd_1
XPHY_735 VGND VPWR sky130_fd_sc_hd__tapvpwrvgnd_1
XFILLER_12_913 VGND VPWR sky130_fd_sc_hd__decap_3
XPHY_2035 VGND VPWR sky130_fd_sc_hd__tapvpwrvgnd_1
XPHY_746 VGND VPWR sky130_fd_sc_hd__tapvpwrvgnd_1
XPHY_1301 VGND VPWR sky130_fd_sc_hd__tapvpwrvgnd_1
XPHY_757 VGND VPWR sky130_fd_sc_hd__tapvpwrvgnd_1
XPHY_2046 VGND VPWR sky130_fd_sc_hd__tapvpwrvgnd_1
XPHY_768 VGND VPWR sky130_fd_sc_hd__tapvpwrvgnd_1
XFILLER_51_581 VGND VPWR sky130_fd_sc_hd__decap_12
XPHY_1312 VGND VPWR sky130_fd_sc_hd__tapvpwrvgnd_1
XPHY_2057 VGND VPWR sky130_fd_sc_hd__tapvpwrvgnd_1
XFILLER_23_283 VGND VPWR sky130_fd_sc_hd__fill_2
XFILLER_11_423 VGND VPWR sky130_fd_sc_hd__decap_4
XPHY_1323 VGND VPWR sky130_fd_sc_hd__tapvpwrvgnd_1
XANTENNA__3458__B _3459_/B VGND VPWR sky130_fd_sc_hd__diode_2
XPHY_2068 VGND VPWR sky130_fd_sc_hd__tapvpwrvgnd_1