* NGSPICE file created from usb.ext - technology: sky130A

* Black-box entry subcircuit for sky130_fd_sc_hd__fill_1 abstract view
.subckt sky130_fd_sc_hd__fill_1 VGND VPWR
.ends

* Black-box entry subcircuit for sky130_fd_sc_hd__diode_2 abstract view
.subckt sky130_fd_sc_hd__diode_2 DIODE VGND VPWR
.ends

* Black-box entry subcircuit for sky130_fd_sc_hd__fill_2 abstract view
.subckt sky130_fd_sc_hd__fill_2 VGND VPWR
.ends

* Black-box entry subcircuit for sky130_fd_sc_hd__decap_4 abstract view
.subckt sky130_fd_sc_hd__decap_4 VGND VPWR
.ends

* Black-box entry subcircuit for sky130_fd_sc_hd__decap_12 abstract view
.subckt sky130_fd_sc_hd__decap_12 VGND VPWR
.ends

* Black-box entry subcircuit for sky130_fd_sc_hd__or2_4 abstract view
.subckt sky130_fd_sc_hd__or2_4 A B X VGND VPWR
.ends

* Black-box entry subcircuit for sky130_fd_sc_hd__a32o_4 abstract view
.subckt sky130_fd_sc_hd__a32o_4 A1 A2 A3 B1 B2 X VGND VPWR
.ends

* Black-box entry subcircuit for sky130_fd_sc_hd__dfrtp_4 abstract view
.subckt sky130_fd_sc_hd__dfrtp_4 D Q RESET_B CLK VGND VPWR
.ends

* Black-box entry subcircuit for sky130_fd_sc_hd__dfstp_4 abstract view
.subckt sky130_fd_sc_hd__dfstp_4 D Q SET_B CLK VGND VPWR
.ends

* Black-box entry subcircuit for sky130_fd_sc_hd__dfxtp_4 abstract view
.subckt sky130_fd_sc_hd__dfxtp_4 D Q CLK VGND VPWR
.ends

* Black-box entry subcircuit for sky130_fd_sc_hd__decap_3 abstract view
.subckt sky130_fd_sc_hd__decap_3 VGND VPWR
.ends

* Black-box entry subcircuit for sky130_fd_sc_hd__inv_8 abstract view
.subckt sky130_fd_sc_hd__inv_8 A Y VGND VPWR
.ends

* Black-box entry subcircuit for sky130_fd_sc_hd__and2_4 abstract view
.subckt sky130_fd_sc_hd__and2_4 A B X VGND VPWR
.ends

* Black-box entry subcircuit for sky130_fd_sc_hd__o21ai_4 abstract view
.subckt sky130_fd_sc_hd__o21ai_4 A1 A2 B1 Y VGND VPWR
.ends

* Black-box entry subcircuit for sky130_fd_sc_hd__o21a_4 abstract view
.subckt sky130_fd_sc_hd__o21a_4 A1 A2 B1 X VGND VPWR
.ends

* Black-box entry subcircuit for sky130_fd_sc_hd__or4_4 abstract view
.subckt sky130_fd_sc_hd__or4_4 A B C D X VGND VPWR
.ends

* Black-box entry subcircuit for sky130_fd_sc_hd__buf_1 abstract view
.subckt sky130_fd_sc_hd__buf_1 A X VGND VPWR
.ends

* Black-box entry subcircuit for sky130_fd_sc_hd__and3_4 abstract view
.subckt sky130_fd_sc_hd__and3_4 A B C X VGND VPWR
.ends

* Black-box entry subcircuit for sky130_fd_sc_hd__o22a_4 abstract view
.subckt sky130_fd_sc_hd__o22a_4 A1 A2 B1 B2 X VGND VPWR
.ends

* Black-box entry subcircuit for sky130_fd_sc_hd__tapvpwrvgnd_1 abstract view
.subckt sky130_fd_sc_hd__tapvpwrvgnd_1 VGND VPWR
.ends

* Black-box entry subcircuit for sky130_fd_sc_hd__a2bb2o_4 abstract view
.subckt sky130_fd_sc_hd__a2bb2o_4 A1_N A2_N B1 B2 X VGND VPWR
.ends

* Black-box entry subcircuit for sky130_fd_sc_hd__nor2_4 abstract view
.subckt sky130_fd_sc_hd__nor2_4 A B Y VGND VPWR
.ends

* Black-box entry subcircuit for sky130_fd_sc_hd__decap_8 abstract view
.subckt sky130_fd_sc_hd__decap_8 VGND VPWR
.ends

* Black-box entry subcircuit for sky130_fd_sc_hd__a21oi_4 abstract view
.subckt sky130_fd_sc_hd__a21oi_4 A1 A2 B1 Y VGND VPWR
.ends

* Black-box entry subcircuit for sky130_fd_sc_hd__a21o_4 abstract view
.subckt sky130_fd_sc_hd__a21o_4 A1 A2 B1 X VGND VPWR
.ends

* Black-box entry subcircuit for sky130_fd_sc_hd__a2bb2oi_4 abstract view
.subckt sky130_fd_sc_hd__a2bb2oi_4 A1_N A2_N B1 B2 Y VGND VPWR
.ends

* Black-box entry subcircuit for sky130_fd_sc_hd__clkbuf_1 abstract view
.subckt sky130_fd_sc_hd__clkbuf_1 A X VGND VPWR
.ends

* Black-box entry subcircuit for sky130_fd_sc_hd__a211o_4 abstract view
.subckt sky130_fd_sc_hd__a211o_4 A1 A2 B1 C1 X VGND VPWR
.ends

* Black-box entry subcircuit for sky130_fd_sc_hd__a2111oi_4 abstract view
.subckt sky130_fd_sc_hd__a2111oi_4 A1 A2 B1 C1 D1 Y VGND VPWR
.ends

* Black-box entry subcircuit for sky130_fd_sc_hd__nand2_4 abstract view
.subckt sky130_fd_sc_hd__nand2_4 A B Y VGND VPWR
.ends

* Black-box entry subcircuit for sky130_fd_sc_hd__clkbuf_16 abstract view
.subckt sky130_fd_sc_hd__clkbuf_16 A X VGND VPWR
.ends

* Black-box entry subcircuit for sky130_fd_sc_hd__decap_6 abstract view
.subckt sky130_fd_sc_hd__decap_6 VGND VPWR
.ends

* Black-box entry subcircuit for sky130_fd_sc_hd__and4_4 abstract view
.subckt sky130_fd_sc_hd__and4_4 A B C D X VGND VPWR
.ends

* Black-box entry subcircuit for sky130_fd_sc_hd__xor2_4 abstract view
.subckt sky130_fd_sc_hd__xor2_4 A B X VGND VPWR
.ends

* Black-box entry subcircuit for sky130_fd_sc_hd__or3_4 abstract view
.subckt sky130_fd_sc_hd__or3_4 A B C X VGND VPWR
.ends

* Black-box entry subcircuit for sky130_fd_sc_hd__o32a_4 abstract view
.subckt sky130_fd_sc_hd__o32a_4 A1 A2 A3 B1 B2 X VGND VPWR
.ends

* Black-box entry subcircuit for sky130_fd_sc_hd__nor3_4 abstract view
.subckt sky130_fd_sc_hd__nor3_4 A B C Y VGND VPWR
.ends

* Black-box entry subcircuit for sky130_fd_sc_hd__a2111o_4 abstract view
.subckt sky130_fd_sc_hd__a2111o_4 A1 A2 B1 C1 D1 X VGND VPWR
.ends

* Black-box entry subcircuit for sky130_fd_sc_hd__a21boi_4 abstract view
.subckt sky130_fd_sc_hd__a21boi_4 A1 A2 B1_N Y VGND VPWR
.ends

* Black-box entry subcircuit for sky130_fd_sc_hd__nand3_4 abstract view
.subckt sky130_fd_sc_hd__nand3_4 A B C Y VGND VPWR
.ends

* Black-box entry subcircuit for sky130_fd_sc_hd__xnor2_4 abstract view
.subckt sky130_fd_sc_hd__xnor2_4 A B Y VGND VPWR
.ends

* Black-box entry subcircuit for sky130_fd_sc_hd__a21bo_4 abstract view
.subckt sky130_fd_sc_hd__a21bo_4 A1 A2 B1_N X VGND VPWR
.ends

* Black-box entry subcircuit for sky130_fd_sc_hd__nor4_4 abstract view
.subckt sky130_fd_sc_hd__nor4_4 A B C D Y VGND VPWR
.ends

* Black-box entry subcircuit for sky130_fd_sc_hd__nand4_4 abstract view
.subckt sky130_fd_sc_hd__nand4_4 A B C D Y VGND VPWR
.ends

* Black-box entry subcircuit for sky130_fd_sc_hd__a22oi_4 abstract view
.subckt sky130_fd_sc_hd__a22oi_4 A1 A2 B1 B2 Y VGND VPWR
.ends

* Black-box entry subcircuit for sky130_fd_sc_hd__a32oi_4 abstract view
.subckt sky130_fd_sc_hd__a32oi_4 A1 A2 A3 B1 B2 Y VGND VPWR
.ends

.subckt usb clk_48 data_in[0] data_in[1] data_in[2] data_in[3] data_in[4] data_in[5]
+ data_in[6] data_in[7] data_in_valid data_out[0] data_out[1] data_out[2] data_out[3]
+ data_out[4] data_out[5] data_out[6] data_out[7] data_strobe data_toggle direction_in
+ endpoint[0] endpoint[1] endpoint[2] endpoint[3] handshake[0] handshake[1] rst_n
+ rx_j rx_se0 setup success transaction_active tx_en tx_j tx_se0 usb_address[0] usb_address[1]
+ usb_address[2] usb_address[3] usb_address[4] usb_address[5] usb_address[6] usb_rst
+ VPWR VGND
XFILLER_39_222 VGND VPWR sky130_fd_sc_hd__fill_1
XANTENNA__1151__B1 _1158_/A VGND VPWR sky130_fd_sc_hd__diode_2
XFILLER_39_299 VGND VPWR sky130_fd_sc_hd__fill_2
XFILLER_62_291 VGND VPWR sky130_fd_sc_hd__fill_2
XFILLER_22_133 VGND VPWR sky130_fd_sc_hd__decap_4
XFILLER_52_29 VGND VPWR sky130_fd_sc_hd__fill_2
XANTENNA__1206__B2 _1205_/X VGND VPWR sky130_fd_sc_hd__diode_2
XANTENNA__1206__A1 _1214_/B VGND VPWR sky130_fd_sc_hd__diode_2
XANTENNA__0965__B1 _1447_/Q VGND VPWR sky130_fd_sc_hd__diode_2
XANTENNA__1390__B1 _1389_/X VGND VPWR sky130_fd_sc_hd__diode_2
XANTENNA__0795__D handshake[1] VGND VPWR sky130_fd_sc_hd__diode_2
XFILLER_18_406 VGND VPWR sky130_fd_sc_hd__fill_1
XFILLER_45_214 VGND VPWR sky130_fd_sc_hd__fill_2
XFILLER_45_236 VGND VPWR sky130_fd_sc_hd__fill_2
XFILLER_60_206 VGND VPWR sky130_fd_sc_hd__fill_2
XFILLER_26_63 VGND VPWR sky130_fd_sc_hd__fill_2
XFILLER_53_291 VGND VPWR sky130_fd_sc_hd__fill_2
XFILLER_13_177 VGND VPWR sky130_fd_sc_hd__fill_2
XFILLER_9_148 VGND VPWR sky130_fd_sc_hd__fill_2
XFILLER_5_354 VGND VPWR sky130_fd_sc_hd__decap_12
XANTENNA__1147__C _1147_/C VGND VPWR sky130_fd_sc_hd__diode_2
X_1270_ _1363_/A _1247_/D _1270_/X VGND VPWR sky130_fd_sc_hd__or2_4
XFILLER_67_70 VGND VPWR sky130_fd_sc_hd__fill_2
XANTENNA__1133__B1 _1147_/A VGND VPWR sky130_fd_sc_hd__diode_2
XFILLER_51_217 VGND VPWR sky130_fd_sc_hd__fill_2
X_0985_ _0979_/X _0980_/X _1444_/Q data_out[1] _0981_/X _0985_/X VGND VPWR sky130_fd_sc_hd__a32o_4
XFILLER_8_170 VGND VPWR sky130_fd_sc_hd__decap_4
XANTENNA__1004__A1_N _1552_/Q VGND VPWR sky130_fd_sc_hd__diode_2
X_1606_ _1417_/Y _1606_/Q rst_n _1611_/CLK VGND VPWR sky130_fd_sc_hd__dfrtp_4
XFILLER_59_306 VGND VPWR sky130_fd_sc_hd__fill_2
X_1537_ _1537_/D _1537_/Q _0927_/X _1529_/CLK VGND VPWR sky130_fd_sc_hd__dfstp_4
XANTENNA__1372__B1 _0769_/Y VGND VPWR sky130_fd_sc_hd__diode_2
XANTENNA__1354__A data_in_valid VGND VPWR sky130_fd_sc_hd__diode_2
X_1468_ _1467_/Q _0766_/A _1467_/CLK VGND VPWR sky130_fd_sc_hd__dfxtp_4
XANTENNA__1504__D _1504_/D VGND VPWR sky130_fd_sc_hd__diode_2
X_1399_ data_in[6] _1399_/B _1399_/X VGND VPWR sky130_fd_sc_hd__or2_4
XFILLER_27_225 VGND VPWR sky130_fd_sc_hd__fill_2
XFILLER_27_236 VGND VPWR sky130_fd_sc_hd__fill_2
XFILLER_63_17 VGND VPWR sky130_fd_sc_hd__fill_2
XFILLER_42_206 VGND VPWR sky130_fd_sc_hd__fill_2
XFILLER_42_239 VGND VPWR sky130_fd_sc_hd__fill_2
XFILLER_12_32 VGND VPWR sky130_fd_sc_hd__decap_3
XANTENNA__1248__B _1245_/X VGND VPWR sky130_fd_sc_hd__diode_2
XFILLER_37_62 VGND VPWR sky130_fd_sc_hd__decap_3
XFILLER_33_217 VGND VPWR sky130_fd_sc_hd__fill_2
XFILLER_26_280 VGND VPWR sky130_fd_sc_hd__decap_3
XFILLER_53_50 VGND VPWR sky130_fd_sc_hd__fill_1
XFILLER_41_272 VGND VPWR sky130_fd_sc_hd__fill_2
X_0770_ _0716_/X _0887_/B VGND VPWR sky130_fd_sc_hd__inv_8
XANTENNA__1158__B _1155_/Y VGND VPWR sky130_fd_sc_hd__diode_2
XFILLER_5_184 VGND VPWR sky130_fd_sc_hd__fill_2
XANTENNA__0997__B _0816_/X VGND VPWR sky130_fd_sc_hd__diode_2
XFILLER_68_125 VGND VPWR sky130_fd_sc_hd__fill_2
X_1322_ _0869_/A _1358_/A _1322_/X VGND VPWR sky130_fd_sc_hd__and2_4
X_1253_ _1241_/X _1251_/Y _1252_/X _1607_/D VGND VPWR sky130_fd_sc_hd__o21ai_4
XFILLER_64_353 VGND VPWR sky130_fd_sc_hd__decap_3
X_1184_ _1095_/X _1183_/X _1181_/X _1184_/X VGND VPWR sky130_fd_sc_hd__o21a_4
XFILLER_24_206 VGND VPWR sky130_fd_sc_hd__fill_2
XANTENNA__0865__C1 _0864_/Y VGND VPWR sky130_fd_sc_hd__diode_2
XFILLER_17_291 VGND VPWR sky130_fd_sc_hd__fill_2
XFILLER_32_250 VGND VPWR sky130_fd_sc_hd__fill_2
X_0968_ _0855_/X _0955_/X _1442_/Q _1450_/Q _0958_/X _0968_/X VGND VPWR sky130_fd_sc_hd__a32o_4
X_0899_ _1358_/A _0892_/X _0894_/X _0898_/X _0899_/X VGND VPWR sky130_fd_sc_hd__or4_4
XANTENNA__1345__B1 _1330_/A VGND VPWR sky130_fd_sc_hd__diode_2
XANTENNA__1084__A _1550_/Q VGND VPWR sky130_fd_sc_hd__diode_2
XFILLER_59_114 VGND VPWR sky130_fd_sc_hd__fill_2
XFILLER_59_158 VGND VPWR sky130_fd_sc_hd__fill_2
XFILLER_59_147 VGND VPWR sky130_fd_sc_hd__fill_2
XFILLER_55_342 VGND VPWR sky130_fd_sc_hd__fill_2
XFILLER_55_353 VGND VPWR sky130_fd_sc_hd__fill_2
XFILLER_15_239 VGND VPWR sky130_fd_sc_hd__decap_4
XANTENNA__1250__C _1250_/C VGND VPWR sky130_fd_sc_hd__diode_2
XFILLER_23_42 VGND VPWR sky130_fd_sc_hd__fill_2
XFILLER_23_53 VGND VPWR sky130_fd_sc_hd__decap_4
XANTENNA__1259__A _1250_/C VGND VPWR sky130_fd_sc_hd__diode_2
XFILLER_23_97 VGND VPWR sky130_fd_sc_hd__fill_1
XFILLER_2_154 VGND VPWR sky130_fd_sc_hd__fill_2
XFILLER_46_342 VGND VPWR sky130_fd_sc_hd__fill_2
XFILLER_61_334 VGND VPWR sky130_fd_sc_hd__decap_4
XFILLER_0_79 VGND VPWR sky130_fd_sc_hd__fill_2
XANTENNA__0735__A1_N usb_address[4] VGND VPWR sky130_fd_sc_hd__diode_2
XFILLER_64_93 VGND VPWR sky130_fd_sc_hd__fill_2
XFILLER_61_367 VGND VPWR sky130_fd_sc_hd__fill_2
XFILLER_9_22 VGND VPWR sky130_fd_sc_hd__fill_2
XFILLER_14_250 VGND VPWR sky130_fd_sc_hd__fill_2
XFILLER_14_261 VGND VPWR sky130_fd_sc_hd__fill_2
XANTENNA__1442__CLK _1518_/CLK VGND VPWR sky130_fd_sc_hd__diode_2
X_0822_ _0821_/Y _0823_/B VGND VPWR sky130_fd_sc_hd__buf_1
X_0753_ _0734_/Y _0753_/B _0742_/X _0753_/D _0754_/D VGND VPWR sky130_fd_sc_hd__or4_4
XANTENNA__0801__A _0799_/Y VGND VPWR sky130_fd_sc_hd__diode_2
XANTENNA__1592__CLK _1466_/CLK VGND VPWR sky130_fd_sc_hd__diode_2
XANTENNA__1569__RESET_B rst_n VGND VPWR sky130_fd_sc_hd__diode_2
XFILLER_50_3 VGND VPWR sky130_fd_sc_hd__decap_3
X_1305_ _1305_/A _1305_/B _0712_/B _1306_/B VGND VPWR sky130_fd_sc_hd__and3_4
XFILLER_37_331 VGND VPWR sky130_fd_sc_hd__fill_2
X_1236_ _1603_/Q _1236_/Y VGND VPWR sky130_fd_sc_hd__inv_8
X_1167_ _0916_/A _1160_/X _1167_/X VGND VPWR sky130_fd_sc_hd__and2_4
XFILLER_37_353 VGND VPWR sky130_fd_sc_hd__fill_2
XFILLER_37_364 VGND VPWR sky130_fd_sc_hd__fill_2
XFILLER_64_183 VGND VPWR sky130_fd_sc_hd__fill_2
XFILLER_52_334 VGND VPWR sky130_fd_sc_hd__fill_2
XFILLER_37_397 VGND VPWR sky130_fd_sc_hd__fill_2
XFILLER_44_19 VGND VPWR sky130_fd_sc_hd__fill_2
XFILLER_52_367 VGND VPWR sky130_fd_sc_hd__fill_2
X_1098_ _1555_/Q _1094_/X _1556_/Q _1095_/X _1098_/X VGND VPWR sky130_fd_sc_hd__o22a_4
XFILLER_52_389 VGND VPWR sky130_fd_sc_hd__fill_2
XFILLER_60_18 VGND VPWR sky130_fd_sc_hd__fill_2
XFILLER_20_253 VGND VPWR sky130_fd_sc_hd__fill_2
XANTENNA__0711__A _1305_/A VGND VPWR sky130_fd_sc_hd__diode_2
XANTENNA__1030__A2 _0853_/A VGND VPWR sky130_fd_sc_hd__diode_2
XFILLER_62_109 VGND VPWR sky130_fd_sc_hd__fill_2
XANTENNA__1097__A2 _1094_/X VGND VPWR sky130_fd_sc_hd__diode_2
XFILLER_18_75 VGND VPWR sky130_fd_sc_hd__fill_2
XFILLER_43_301 VGND VPWR sky130_fd_sc_hd__decap_4
XANTENNA__1465__CLK _1466_/CLK VGND VPWR sky130_fd_sc_hd__diode_2
XPHY_510 VGND VPWR sky130_fd_sc_hd__tapvpwrvgnd_1
XFILLER_43_356 VGND VPWR sky130_fd_sc_hd__decap_4
XFILLER_43_367 VGND VPWR sky130_fd_sc_hd__fill_2
XPHY_543 VGND VPWR sky130_fd_sc_hd__tapvpwrvgnd_1
XPHY_532 VGND VPWR sky130_fd_sc_hd__tapvpwrvgnd_1
XPHY_521 VGND VPWR sky130_fd_sc_hd__tapvpwrvgnd_1
XANTENNA__1536__SET_B _0927_/X VGND VPWR sky130_fd_sc_hd__diode_2
XFILLER_43_378 VGND VPWR sky130_fd_sc_hd__fill_2
XFILLER_43_389 VGND VPWR sky130_fd_sc_hd__fill_2
XPHY_587 VGND VPWR sky130_fd_sc_hd__tapvpwrvgnd_1
XPHY_576 VGND VPWR sky130_fd_sc_hd__tapvpwrvgnd_1
XPHY_565 VGND VPWR sky130_fd_sc_hd__tapvpwrvgnd_1
XPHY_554 VGND VPWR sky130_fd_sc_hd__tapvpwrvgnd_1
XANTENNA__1599__SET_B _0928_/X VGND VPWR sky130_fd_sc_hd__diode_2
XPHY_598 VGND VPWR sky130_fd_sc_hd__tapvpwrvgnd_1
XFILLER_11_275 VGND VPWR sky130_fd_sc_hd__fill_2
XFILLER_11_242 VGND VPWR sky130_fd_sc_hd__fill_2
XFILLER_7_224 VGND VPWR sky130_fd_sc_hd__fill_2
XFILLER_22_7 VGND VPWR sky130_fd_sc_hd__fill_2
XANTENNA__1088__A2 _1059_/Y VGND VPWR sky130_fd_sc_hd__diode_2
X_1021_ _0998_/X _1021_/X VGND VPWR sky130_fd_sc_hd__buf_1
XFILLER_19_375 VGND VPWR sky130_fd_sc_hd__fill_2
XANTENNA__1602__D _1235_/X VGND VPWR sky130_fd_sc_hd__diode_2
XFILLER_19_386 VGND VPWR sky130_fd_sc_hd__fill_2
XFILLER_19_397 VGND VPWR sky130_fd_sc_hd__fill_2
XFILLER_34_323 VGND VPWR sky130_fd_sc_hd__fill_2
XFILLER_34_334 VGND VPWR sky130_fd_sc_hd__fill_2
XFILLER_61_120 VGND VPWR sky130_fd_sc_hd__fill_2
XFILLER_61_175 VGND VPWR sky130_fd_sc_hd__decap_4
XFILLER_34_389 VGND VPWR sky130_fd_sc_hd__fill_2
X_0805_ _1466_/Q _1466_/D _0798_/A _0805_/X VGND VPWR sky130_fd_sc_hd__and3_4
X_0736_ _1529_/Q _0736_/Y VGND VPWR sky130_fd_sc_hd__inv_8
XFILLER_29_117 VGND VPWR sky130_fd_sc_hd__decap_4
XANTENNA__1362__A _0715_/A VGND VPWR sky130_fd_sc_hd__diode_2
XANTENNA__1512__D _1512_/D VGND VPWR sky130_fd_sc_hd__diode_2
X_1219_ _1200_/A _1222_/B VGND VPWR sky130_fd_sc_hd__buf_1
XFILLER_55_29 VGND VPWR sky130_fd_sc_hd__fill_2
XANTENNA__1079__A2 _1069_/X VGND VPWR sky130_fd_sc_hd__diode_2
XFILLER_37_150 VGND VPWR sky130_fd_sc_hd__decap_4
XANTENNA__1488__CLK _1514_/CLK VGND VPWR sky130_fd_sc_hd__diode_2
XFILLER_25_334 VGND VPWR sky130_fd_sc_hd__decap_3
XFILLER_37_161 VGND VPWR sky130_fd_sc_hd__decap_4
XFILLER_37_172 VGND VPWR sky130_fd_sc_hd__decap_3
XFILLER_25_367 VGND VPWR sky130_fd_sc_hd__fill_2
XANTENNA__1279__A2_N _1278_/Y VGND VPWR sky130_fd_sc_hd__diode_2
XANTENNA__0706__A _0759_/A VGND VPWR sky130_fd_sc_hd__diode_2
XFILLER_40_337 VGND VPWR sky130_fd_sc_hd__fill_2
XANTENNA__1251__A2 _1244_/X VGND VPWR sky130_fd_sc_hd__diode_2
XFILLER_20_32 VGND VPWR sky130_fd_sc_hd__fill_2
XFILLER_29_52 VGND VPWR sky130_fd_sc_hd__fill_1
XANTENNA__1272__A _1272_/A VGND VPWR sky130_fd_sc_hd__diode_2
XFILLER_28_183 VGND VPWR sky130_fd_sc_hd__fill_2
XANTENNA__1422__D _1422_/D VGND VPWR sky130_fd_sc_hd__diode_2
XFILLER_16_334 VGND VPWR sky130_fd_sc_hd__fill_2
XFILLER_45_51 VGND VPWR sky130_fd_sc_hd__fill_2
XFILLER_45_62 VGND VPWR sky130_fd_sc_hd__fill_2
XFILLER_45_73 VGND VPWR sky130_fd_sc_hd__fill_2
XANTENNA_clkbuf_4_6_0_clk_48_A clkbuf_4_7_0_clk_48/A VGND VPWR sky130_fd_sc_hd__diode_2
XFILLER_16_378 VGND VPWR sky130_fd_sc_hd__decap_4
XFILLER_16_389 VGND VPWR sky130_fd_sc_hd__fill_2
XFILLER_43_164 VGND VPWR sky130_fd_sc_hd__fill_2
XFILLER_43_175 VGND VPWR sky130_fd_sc_hd__fill_2
XPHY_340 VGND VPWR sky130_fd_sc_hd__tapvpwrvgnd_1
XFILLER_31_359 VGND VPWR sky130_fd_sc_hd__fill_2
XPHY_351 VGND VPWR sky130_fd_sc_hd__tapvpwrvgnd_1
XPHY_362 VGND VPWR sky130_fd_sc_hd__tapvpwrvgnd_1
XPHY_373 VGND VPWR sky130_fd_sc_hd__tapvpwrvgnd_1
XPHY_384 VGND VPWR sky130_fd_sc_hd__tapvpwrvgnd_1
XPHY_395 VGND VPWR sky130_fd_sc_hd__tapvpwrvgnd_1
XFILLER_6_23 VGND VPWR sky130_fd_sc_hd__fill_2
X_1570_ _1570_/D _0918_/B rst_n _1575_/CLK VGND VPWR sky130_fd_sc_hd__dfrtp_4
XFILLER_6_89 VGND VPWR sky130_fd_sc_hd__decap_3
XFILLER_3_260 VGND VPWR sky130_fd_sc_hd__fill_2
XANTENNA__1182__A _1183_/B VGND VPWR sky130_fd_sc_hd__diode_2
XFILLER_66_223 VGND VPWR sky130_fd_sc_hd__decap_12
XFILLER_13_3 VGND VPWR sky130_fd_sc_hd__fill_2
X_1004_ _1552_/Q _0840_/X _1552_/Q _0840_/X _1004_/X VGND VPWR sky130_fd_sc_hd__a2bb2o_4
XFILLER_22_337 VGND VPWR sky130_fd_sc_hd__fill_2
XANTENNA__1584__RESET_B rst_n VGND VPWR sky130_fd_sc_hd__diode_2
XANTENNA__1233__A2 _1205_/X VGND VPWR sky130_fd_sc_hd__diode_2
XANTENNA__1513__RESET_B rst_n VGND VPWR sky130_fd_sc_hd__diode_2
XANTENNA__0899__C _0894_/X VGND VPWR sky130_fd_sc_hd__diode_2
XANTENNA__1357__A _1350_/X VGND VPWR sky130_fd_sc_hd__diode_2
XANTENNA__1076__B _1064_/X VGND VPWR sky130_fd_sc_hd__diode_2
XANTENNA__1507__D _1507_/D VGND VPWR sky130_fd_sc_hd__diode_2
X_0719_ _0719_/A _0718_/X _0719_/X VGND VPWR sky130_fd_sc_hd__or2_4
XFILLER_57_245 VGND VPWR sky130_fd_sc_hd__fill_2
XFILLER_57_234 VGND VPWR sky130_fd_sc_hd__fill_2
XFILLER_57_223 VGND VPWR sky130_fd_sc_hd__fill_2
XANTENNA__1092__A _1095_/A VGND VPWR sky130_fd_sc_hd__diode_2
XFILLER_57_278 VGND VPWR sky130_fd_sc_hd__fill_1
XFILLER_57_256 VGND VPWR sky130_fd_sc_hd__fill_2
XFILLER_25_120 VGND VPWR sky130_fd_sc_hd__fill_2
XFILLER_25_142 VGND VPWR sky130_fd_sc_hd__decap_4
XFILLER_25_175 VGND VPWR sky130_fd_sc_hd__decap_4
XFILLER_13_348 VGND VPWR sky130_fd_sc_hd__fill_2
XFILLER_40_123 VGND VPWR sky130_fd_sc_hd__fill_1
XANTENNA__1503__CLK _1589_/CLK VGND VPWR sky130_fd_sc_hd__diode_2
XFILLER_21_381 VGND VPWR sky130_fd_sc_hd__decap_4
XANTENNA__0983__A1 _0979_/X VGND VPWR sky130_fd_sc_hd__diode_2
XANTENNA__0983__B2 _0981_/X VGND VPWR sky130_fd_sc_hd__diode_2
XANTENNA__1267__A _1272_/A VGND VPWR sky130_fd_sc_hd__diode_2
XANTENNA__0735__B2 _1447_/Q VGND VPWR sky130_fd_sc_hd__diode_2
XFILLER_0_230 VGND VPWR sky130_fd_sc_hd__fill_1
XFILLER_0_274 VGND VPWR sky130_fd_sc_hd__decap_4
XFILLER_48_223 VGND VPWR sky130_fd_sc_hd__decap_3
XFILLER_63_237 VGND VPWR sky130_fd_sc_hd__decap_3
XFILLER_16_197 VGND VPWR sky130_fd_sc_hd__fill_2
XFILLER_31_123 VGND VPWR sky130_fd_sc_hd__fill_2
XPHY_170 VGND VPWR sky130_fd_sc_hd__tapvpwrvgnd_1
XANTENNA__1215__A2 _1208_/X VGND VPWR sky130_fd_sc_hd__diode_2
XPHY_192 VGND VPWR sky130_fd_sc_hd__tapvpwrvgnd_1
XPHY_181 VGND VPWR sky130_fd_sc_hd__tapvpwrvgnd_1
XFILLER_31_178 VGND VPWR sky130_fd_sc_hd__fill_1
XANTENNA__1281__A1_N _1272_/X VGND VPWR sky130_fd_sc_hd__diode_2
XANTENNA__0974__A1 _0969_/X VGND VPWR sky130_fd_sc_hd__diode_2
XANTENNA__0974__B2 _0972_/X VGND VPWR sky130_fd_sc_hd__diode_2
XFILLER_8_385 VGND VPWR sky130_fd_sc_hd__decap_12
X_1553_ _1553_/D _0904_/A rst_n _1567_/CLK VGND VPWR sky130_fd_sc_hd__dfrtp_4
X_1484_ _1484_/D _1484_/Q rst_n _1472_/CLK VGND VPWR sky130_fd_sc_hd__dfstp_4
XANTENNA__1151__A1 _1149_/X VGND VPWR sky130_fd_sc_hd__diode_2
XFILLER_39_245 VGND VPWR sky130_fd_sc_hd__decap_4
XFILLER_54_215 VGND VPWR sky130_fd_sc_hd__fill_2
XFILLER_39_278 VGND VPWR sky130_fd_sc_hd__decap_4
XANTENNA__1526__CLK _1443_/CLK VGND VPWR sky130_fd_sc_hd__diode_2
XFILLER_22_167 VGND VPWR sky130_fd_sc_hd__decap_4
XANTENNA__1206__A2 _1204_/Y VGND VPWR sky130_fd_sc_hd__diode_2
XANTENNA__0965__B2 _0958_/X VGND VPWR sky130_fd_sc_hd__diode_2
XANTENNA__0965__A1 _0855_/X VGND VPWR sky130_fd_sc_hd__diode_2
XANTENNA_clkbuf_4_12_0_clk_48_A clkbuf_3_6_0_clk_48/X VGND VPWR sky130_fd_sc_hd__diode_2
XANTENNA__1390__A1 _1388_/Y VGND VPWR sky130_fd_sc_hd__diode_2
XFILLER_13_123 VGND VPWR sky130_fd_sc_hd__fill_2
XFILLER_3_57 VGND VPWR sky130_fd_sc_hd__decap_4
XFILLER_3_79 VGND VPWR sky130_fd_sc_hd__decap_4
XANTENNA__1133__A1 _0922_/A VGND VPWR sky130_fd_sc_hd__diode_2
XFILLER_36_215 VGND VPWR sky130_fd_sc_hd__fill_2
XANTENNA__1549__CLK _1454_/CLK VGND VPWR sky130_fd_sc_hd__diode_2
XANTENNA__1610__D _1303_/X VGND VPWR sky130_fd_sc_hd__diode_2
XFILLER_51_229 VGND VPWR sky130_fd_sc_hd__decap_3
X_0984_ _0979_/X _0980_/X _1443_/Q data_out[0] _0981_/X _1427_/D VGND VPWR sky130_fd_sc_hd__a32o_4
XFILLER_8_193 VGND VPWR sky130_fd_sc_hd__fill_2
X_1605_ _1605_/D _1605_/Q rst_n _1611_/CLK VGND VPWR sky130_fd_sc_hd__dfrtp_4
X_1536_ _1054_/X _1536_/Q _0927_/X _1583_/CLK VGND VPWR sky130_fd_sc_hd__dfstp_4
XANTENNA__1372__A1 _1409_/A VGND VPWR sky130_fd_sc_hd__diode_2
XANTENNA__1354__B _0887_/D VGND VPWR sky130_fd_sc_hd__diode_2
X_1467_ rx_j _1467_/Q _1467_/CLK VGND VPWR sky130_fd_sc_hd__dfxtp_4
XANTENNA__1124__A1 _1566_/Q VGND VPWR sky130_fd_sc_hd__diode_2
X_1398_ _0887_/A _0758_/Y data_in[5] _1424_/Q _1397_/X _1424_/D VGND VPWR sky130_fd_sc_hd__a32o_4
XANTENNA__1370__A _1369_/X VGND VPWR sky130_fd_sc_hd__diode_2
XANTENNA__1520__D _1022_/X VGND VPWR sky130_fd_sc_hd__diode_2
XANTENNA__0714__A _0714_/A VGND VPWR sky130_fd_sc_hd__diode_2
XFILLER_50_273 VGND VPWR sky130_fd_sc_hd__fill_2
XFILLER_50_284 VGND VPWR sky130_fd_sc_hd__fill_2
XFILLER_12_11 VGND VPWR sky130_fd_sc_hd__decap_4
XFILLER_10_148 VGND VPWR sky130_fd_sc_hd__fill_1
XFILLER_12_44 VGND VPWR sky130_fd_sc_hd__fill_2
XFILLER_12_55 VGND VPWR sky130_fd_sc_hd__fill_2
XANTENNA__1060__B1 _1056_/A VGND VPWR sky130_fd_sc_hd__diode_2
XANTENNA__1248__C _0874_/C VGND VPWR sky130_fd_sc_hd__diode_2
XANTENNA__1115__A1 _0919_/D VGND VPWR sky130_fd_sc_hd__diode_2
XFILLER_18_215 VGND VPWR sky130_fd_sc_hd__fill_2
XANTENNA__1430__D _1430_/D VGND VPWR sky130_fd_sc_hd__diode_2
XFILLER_53_62 VGND VPWR sky130_fd_sc_hd__fill_2
XFILLER_41_284 VGND VPWR sky130_fd_sc_hd__fill_2
XFILLER_53_73 VGND VPWR sky130_fd_sc_hd__decap_4
XANTENNA__1158__C _1158_/C VGND VPWR sky130_fd_sc_hd__diode_2
XFILLER_52_7 VGND VPWR sky130_fd_sc_hd__fill_2
XANTENNA__0997__C _0846_/C VGND VPWR sky130_fd_sc_hd__diode_2
XFILLER_68_137 VGND VPWR sky130_fd_sc_hd__fill_2
XANTENNA__1605__D _1605_/D VGND VPWR sky130_fd_sc_hd__diode_2
X_1321_ _0780_/A _0795_/X _1321_/Y VGND VPWR sky130_fd_sc_hd__nor2_4
XFILLER_1_391 VGND VPWR sky130_fd_sc_hd__decap_12
X_1252_ _1252_/A _1252_/B _1252_/X VGND VPWR sky130_fd_sc_hd__or2_4
XFILLER_64_321 VGND VPWR sky130_fd_sc_hd__fill_2
XANTENNA__1190__A _0717_/A VGND VPWR sky130_fd_sc_hd__diode_2
X_1183_ _1587_/Q _1183_/B _1183_/X VGND VPWR sky130_fd_sc_hd__and2_4
XFILLER_49_395 VGND VPWR sky130_fd_sc_hd__fill_2
XANTENNA__0865__B1 _1319_/A VGND VPWR sky130_fd_sc_hd__diode_2
XFILLER_64_398 VGND VPWR sky130_fd_sc_hd__decap_8
XFILLER_20_402 VGND VPWR sky130_fd_sc_hd__decap_4
XFILLER_32_273 VGND VPWR sky130_fd_sc_hd__fill_2
XFILLER_32_284 VGND VPWR sky130_fd_sc_hd__decap_3
X_0967_ _0747_/Y _0962_/Y _1441_/Q _0962_/Y _0967_/X VGND VPWR sky130_fd_sc_hd__a2bb2o_4
XANTENNA__1042__B1 _0825_/B VGND VPWR sky130_fd_sc_hd__diode_2
X_0898_ _1492_/Q _0898_/B _0898_/X VGND VPWR sky130_fd_sc_hd__and2_4
XANTENNA__1365__A _0869_/A VGND VPWR sky130_fd_sc_hd__diode_2
XFILLER_58_29 VGND VPWR sky130_fd_sc_hd__fill_2
XANTENNA__1345__A1 _0772_/C VGND VPWR sky130_fd_sc_hd__diode_2
XANTENNA__1084__B _1014_/B VGND VPWR sky130_fd_sc_hd__diode_2
X_1519_ _1519_/D _0755_/B rst_n _1472_/CLK VGND VPWR sky130_fd_sc_hd__dfrtp_4
XANTENNA__1515__D _1328_/X VGND VPWR sky130_fd_sc_hd__diode_2
XFILLER_55_310 VGND VPWR sky130_fd_sc_hd__fill_2
XFILLER_67_192 VGND VPWR sky130_fd_sc_hd__fill_2
XANTENNA__0709__A _1606_/Q VGND VPWR sky130_fd_sc_hd__diode_2
XFILLER_55_365 VGND VPWR sky130_fd_sc_hd__fill_1
XFILLER_55_398 VGND VPWR sky130_fd_sc_hd__fill_2
XFILLER_15_218 VGND VPWR sky130_fd_sc_hd__decap_4
XFILLER_15_229 VGND VPWR sky130_fd_sc_hd__decap_4
XANTENNA__1250__D _1254_/D VGND VPWR sky130_fd_sc_hd__diode_2
XANTENNA__1281__B1 _0707_/D VGND VPWR sky130_fd_sc_hd__diode_2
XANTENNA__1259__B _0874_/A VGND VPWR sky130_fd_sc_hd__diode_2
XANTENNA__1033__B1 _0755_/B VGND VPWR sky130_fd_sc_hd__diode_2
XANTENNA__1425__D _1425_/D VGND VPWR sky130_fd_sc_hd__diode_2
XFILLER_48_84 VGND VPWR sky130_fd_sc_hd__decap_4
XFILLER_58_192 VGND VPWR sky130_fd_sc_hd__fill_2
XFILLER_0_25 VGND VPWR sky130_fd_sc_hd__fill_2
XFILLER_0_14 VGND VPWR sky130_fd_sc_hd__fill_2
XFILLER_46_321 VGND VPWR sky130_fd_sc_hd__fill_2
XFILLER_0_47 VGND VPWR sky130_fd_sc_hd__fill_2
XFILLER_0_36 VGND VPWR sky130_fd_sc_hd__decap_4
XFILLER_64_72 VGND VPWR sky130_fd_sc_hd__decap_4
XFILLER_46_398 VGND VPWR sky130_fd_sc_hd__fill_2
XFILLER_64_83 VGND VPWR sky130_fd_sc_hd__decap_4
XFILLER_61_357 VGND VPWR sky130_fd_sc_hd__fill_1
XFILLER_9_34 VGND VPWR sky130_fd_sc_hd__decap_4
XFILLER_14_273 VGND VPWR sky130_fd_sc_hd__fill_2
XFILLER_9_78 VGND VPWR sky130_fd_sc_hd__fill_2
XFILLER_9_67 VGND VPWR sky130_fd_sc_hd__fill_2
XFILLER_9_89 VGND VPWR sky130_fd_sc_hd__decap_4
X_0821_ _0994_/A _0821_/Y VGND VPWR sky130_fd_sc_hd__inv_8
XANTENNA__1024__B1 _1522_/Q VGND VPWR sky130_fd_sc_hd__diode_2
X_0752_ _0744_/X _0746_/X _0749_/X _0751_/Y _0753_/D VGND VPWR sky130_fd_sc_hd__or4_4
XANTENNA__0801__B _0800_/Y VGND VPWR sky130_fd_sc_hd__diode_2
XANTENNA__1185__A _1470_/Q VGND VPWR sky130_fd_sc_hd__diode_2
XFILLER_43_3 VGND VPWR sky130_fd_sc_hd__fill_2
X_1304_ _1305_/A _1296_/X _0712_/B _1304_/Y VGND VPWR sky130_fd_sc_hd__a21oi_4
XFILLER_56_107 VGND VPWR sky130_fd_sc_hd__fill_2
X_1235_ _1601_/Q _1205_/X _1234_/X _1235_/X VGND VPWR sky130_fd_sc_hd__a21o_4
XFILLER_49_181 VGND VPWR sky130_fd_sc_hd__fill_2
XFILLER_64_151 VGND VPWR sky130_fd_sc_hd__fill_2
X_1166_ _1165_/X _1166_/Y VGND VPWR sky130_fd_sc_hd__inv_8
XANTENNA__0842__A1_N _0837_/X VGND VPWR sky130_fd_sc_hd__diode_2
XFILLER_37_376 VGND VPWR sky130_fd_sc_hd__decap_3
XFILLER_64_173 VGND VPWR sky130_fd_sc_hd__decap_4
X_1097_ _1554_/Q _1094_/X _1555_/Q _1095_/X _1097_/X VGND VPWR sky130_fd_sc_hd__o22a_4
XANTENNA__1263__B1 _1250_/C VGND VPWR sky130_fd_sc_hd__diode_2
XFILLER_20_276 VGND VPWR sky130_fd_sc_hd__fill_2
XANTENNA__1015__B1 _1529_/Q VGND VPWR sky130_fd_sc_hd__diode_2
XANTENNA__1095__A _1095_/A VGND VPWR sky130_fd_sc_hd__diode_2
XFILLER_47_118 VGND VPWR sky130_fd_sc_hd__decap_4
XFILLER_18_32 VGND VPWR sky130_fd_sc_hd__decap_4
XFILLER_28_321 VGND VPWR sky130_fd_sc_hd__decap_4
XFILLER_55_151 VGND VPWR sky130_fd_sc_hd__fill_2
XFILLER_55_184 VGND VPWR sky130_fd_sc_hd__fill_2
XFILLER_55_173 VGND VPWR sky130_fd_sc_hd__fill_2
XFILLER_28_398 VGND VPWR sky130_fd_sc_hd__fill_2
XPHY_500 VGND VPWR sky130_fd_sc_hd__tapvpwrvgnd_1
XFILLER_34_20 VGND VPWR sky130_fd_sc_hd__fill_2
XPHY_544 VGND VPWR sky130_fd_sc_hd__tapvpwrvgnd_1
XPHY_533 VGND VPWR sky130_fd_sc_hd__tapvpwrvgnd_1
XPHY_522 VGND VPWR sky130_fd_sc_hd__tapvpwrvgnd_1
XPHY_511 VGND VPWR sky130_fd_sc_hd__tapvpwrvgnd_1
XFILLER_34_42 VGND VPWR sky130_fd_sc_hd__fill_2
XFILLER_34_64 VGND VPWR sky130_fd_sc_hd__decap_3
XPHY_577 VGND VPWR sky130_fd_sc_hd__tapvpwrvgnd_1
XPHY_566 VGND VPWR sky130_fd_sc_hd__tapvpwrvgnd_1
XPHY_555 VGND VPWR sky130_fd_sc_hd__tapvpwrvgnd_1
XFILLER_34_86 VGND VPWR sky130_fd_sc_hd__fill_2
XPHY_588 VGND VPWR sky130_fd_sc_hd__tapvpwrvgnd_1
XFILLER_7_203 VGND VPWR sky130_fd_sc_hd__fill_2
XFILLER_11_287 VGND VPWR sky130_fd_sc_hd__fill_2
XFILLER_7_236 VGND VPWR sky130_fd_sc_hd__decap_4
XANTENNA__0902__A _0810_/X VGND VPWR sky130_fd_sc_hd__diode_2
XFILLER_7_269 VGND VPWR sky130_fd_sc_hd__fill_2
XFILLER_50_85 VGND VPWR sky130_fd_sc_hd__decap_3
XFILLER_38_107 VGND VPWR sky130_fd_sc_hd__fill_2
X_1020_ _0823_/B _1020_/X VGND VPWR sky130_fd_sc_hd__buf_1
XFILLER_19_365 VGND VPWR sky130_fd_sc_hd__fill_1
XFILLER_34_357 VGND VPWR sky130_fd_sc_hd__fill_2
XFILLER_34_368 VGND VPWR sky130_fd_sc_hd__fill_2
XFILLER_46_195 VGND VPWR sky130_fd_sc_hd__decap_4
X_0804_ _0797_/Y _0802_/X _0803_/X _0808_/A VGND VPWR sky130_fd_sc_hd__o21a_4
XANTENNA__0812__A _1583_/Q VGND VPWR sky130_fd_sc_hd__diode_2
XFILLER_6_280 VGND VPWR sky130_fd_sc_hd__fill_2
X_0735_ usb_address[4] _1447_/Q usb_address[4] _1447_/Q _0753_/B VGND VPWR sky130_fd_sc_hd__a2bb2oi_4
XANTENNA__1542__SET_B _0927_/X VGND VPWR sky130_fd_sc_hd__diode_2
XANTENNA__1362__B _0762_/X VGND VPWR sky130_fd_sc_hd__diode_2
XFILLER_29_129 VGND VPWR sky130_fd_sc_hd__fill_2
X_1218_ _1593_/Q _1216_/X _1217_/X _1218_/X VGND VPWR sky130_fd_sc_hd__a21o_4
XFILLER_37_184 VGND VPWR sky130_fd_sc_hd__fill_2
X_1149_ _1148_/Y _1149_/B _1149_/X VGND VPWR sky130_fd_sc_hd__or2_4
XFILLER_37_195 VGND VPWR sky130_fd_sc_hd__fill_2
XFILLER_52_154 VGND VPWR sky130_fd_sc_hd__fill_2
XFILLER_40_305 VGND VPWR sky130_fd_sc_hd__fill_2
XFILLER_52_198 VGND VPWR sky130_fd_sc_hd__fill_2
XFILLER_4_206 VGND VPWR sky130_fd_sc_hd__decap_4
XANTENNA__0722__A _0721_/X VGND VPWR sky130_fd_sc_hd__diode_2
XANTENNA__0734__A1_N usb_address[0] VGND VPWR sky130_fd_sc_hd__diode_2
XFILLER_20_66 VGND VPWR sky130_fd_sc_hd__fill_2
XANTENNA__1432__CLK _1443_/CLK VGND VPWR sky130_fd_sc_hd__diode_2
XFILLER_28_162 VGND VPWR sky130_fd_sc_hd__decap_4
XANTENNA__1582__CLK _1583_/CLK VGND VPWR sky130_fd_sc_hd__diode_2
XFILLER_28_195 VGND VPWR sky130_fd_sc_hd__fill_2
XFILLER_43_154 VGND VPWR sky130_fd_sc_hd__fill_2
XANTENNA__1227__B1 _1226_/X VGND VPWR sky130_fd_sc_hd__diode_2
XPHY_330 VGND VPWR sky130_fd_sc_hd__tapvpwrvgnd_1
XPHY_341 VGND VPWR sky130_fd_sc_hd__tapvpwrvgnd_1
XFILLER_31_327 VGND VPWR sky130_fd_sc_hd__fill_2
XPHY_352 VGND VPWR sky130_fd_sc_hd__tapvpwrvgnd_1
XPHY_363 VGND VPWR sky130_fd_sc_hd__tapvpwrvgnd_1
XPHY_374 VGND VPWR sky130_fd_sc_hd__tapvpwrvgnd_1