* NGSPICE file created from usb_cdc_core.ext - technology: sky130A

* Black-box entry subcircuit for sky130_fd_sc_hd__diode_2 abstract view
.subckt sky130_fd_sc_hd__diode_2 DIODE VGND VPWR
.ends

* Black-box entry subcircuit for sky130_fd_sc_hd__decap_4 abstract view
.subckt sky130_fd_sc_hd__decap_4 VGND VPWR
.ends

* Black-box entry subcircuit for sky130_fd_sc_hd__decap_12 abstract view
.subckt sky130_fd_sc_hd__decap_12 VGND VPWR
.ends

* Black-box entry subcircuit for sky130_fd_sc_hd__fill_1 abstract view
.subckt sky130_fd_sc_hd__fill_1 VGND VPWR
.ends

* Black-box entry subcircuit for sky130_fd_sc_hd__o21a_4 abstract view
.subckt sky130_fd_sc_hd__o21a_4 A1 A2 B1 X VGND VPWR
.ends

* Black-box entry subcircuit for sky130_fd_sc_hd__fill_2 abstract view
.subckt sky130_fd_sc_hd__fill_2 VGND VPWR
.ends

* Black-box entry subcircuit for sky130_fd_sc_hd__decap_8 abstract view
.subckt sky130_fd_sc_hd__decap_8 VGND VPWR
.ends

* Black-box entry subcircuit for sky130_fd_sc_hd__or4_4 abstract view
.subckt sky130_fd_sc_hd__or4_4 A B C D X VGND VPWR
.ends

* Black-box entry subcircuit for sky130_fd_sc_hd__o22a_4 abstract view
.subckt sky130_fd_sc_hd__o22a_4 A1 A2 B1 B2 X VGND VPWR
.ends

* Black-box entry subcircuit for sky130_fd_sc_hd__buf_1 abstract view
.subckt sky130_fd_sc_hd__buf_1 A X VGND VPWR
.ends

* Black-box entry subcircuit for sky130_fd_sc_hd__decap_3 abstract view
.subckt sky130_fd_sc_hd__decap_3 VGND VPWR
.ends

* Black-box entry subcircuit for sky130_fd_sc_hd__dfrtp_4 abstract view
.subckt sky130_fd_sc_hd__dfrtp_4 D Q RESET_B CLK VGND VPWR
.ends

* Black-box entry subcircuit for sky130_fd_sc_hd__decap_6 abstract view
.subckt sky130_fd_sc_hd__decap_6 VGND VPWR
.ends

* Black-box entry subcircuit for sky130_fd_sc_hd__or2_4 abstract view
.subckt sky130_fd_sc_hd__or2_4 A B X VGND VPWR
.ends

* Black-box entry subcircuit for sky130_fd_sc_hd__and2_4 abstract view
.subckt sky130_fd_sc_hd__and2_4 A B X VGND VPWR
.ends

* Black-box entry subcircuit for sky130_fd_sc_hd__a21oi_4 abstract view
.subckt sky130_fd_sc_hd__a21oi_4 A1 A2 B1 Y VGND VPWR
.ends

* Black-box entry subcircuit for sky130_fd_sc_hd__inv_8 abstract view
.subckt sky130_fd_sc_hd__inv_8 A Y VGND VPWR
.ends

* Black-box entry subcircuit for sky130_fd_sc_hd__tapvpwrvgnd_1 abstract view
.subckt sky130_fd_sc_hd__tapvpwrvgnd_1 VGND VPWR
.ends

* Black-box entry subcircuit for sky130_fd_sc_hd__a2bb2o_4 abstract view
.subckt sky130_fd_sc_hd__a2bb2o_4 A1_N A2_N B1 B2 X VGND VPWR
.ends

* Black-box entry subcircuit for sky130_fd_sc_hd__nor2_4 abstract view
.subckt sky130_fd_sc_hd__nor2_4 A B Y VGND VPWR
.ends

* Black-box entry subcircuit for sky130_fd_sc_hd__a211o_4 abstract view
.subckt sky130_fd_sc_hd__a211o_4 A1 A2 B1 C1 X VGND VPWR
.ends

* Black-box entry subcircuit for sky130_fd_sc_hd__and3_4 abstract view
.subckt sky130_fd_sc_hd__and3_4 A B C X VGND VPWR
.ends

* Black-box entry subcircuit for sky130_fd_sc_hd__dfstp_4 abstract view
.subckt sky130_fd_sc_hd__dfstp_4 D Q SET_B CLK VGND VPWR
.ends

* Black-box entry subcircuit for sky130_fd_sc_hd__or3_4 abstract view
.subckt sky130_fd_sc_hd__or3_4 A B C X VGND VPWR
.ends

* Black-box entry subcircuit for sky130_fd_sc_hd__a2bb2oi_4 abstract view
.subckt sky130_fd_sc_hd__a2bb2oi_4 A1_N A2_N B1 B2 Y VGND VPWR
.ends

* Black-box entry subcircuit for sky130_fd_sc_hd__nor3_4 abstract view
.subckt sky130_fd_sc_hd__nor3_4 A B C Y VGND VPWR
.ends

* Black-box entry subcircuit for sky130_fd_sc_hd__clkbuf_1 abstract view
.subckt sky130_fd_sc_hd__clkbuf_1 A X VGND VPWR
.ends

* Black-box entry subcircuit for sky130_fd_sc_hd__nand2_4 abstract view
.subckt sky130_fd_sc_hd__nand2_4 A B Y VGND VPWR
.ends

* Black-box entry subcircuit for sky130_fd_sc_hd__and4_4 abstract view
.subckt sky130_fd_sc_hd__and4_4 A B C D X VGND VPWR
.ends

* Black-box entry subcircuit for sky130_fd_sc_hd__o21ai_4 abstract view
.subckt sky130_fd_sc_hd__o21ai_4 A1 A2 B1 Y VGND VPWR
.ends

* Black-box entry subcircuit for sky130_fd_sc_hd__a32oi_4 abstract view
.subckt sky130_fd_sc_hd__a32oi_4 A1 A2 A3 B1 B2 Y VGND VPWR
.ends

* Black-box entry subcircuit for sky130_fd_sc_hd__a21o_4 abstract view
.subckt sky130_fd_sc_hd__a21o_4 A1 A2 B1 X VGND VPWR
.ends

* Black-box entry subcircuit for sky130_fd_sc_hd__a21bo_4 abstract view
.subckt sky130_fd_sc_hd__a21bo_4 A1 A2 B1_N X VGND VPWR
.ends

* Black-box entry subcircuit for sky130_fd_sc_hd__xnor2_4 abstract view
.subckt sky130_fd_sc_hd__xnor2_4 A B Y VGND VPWR
.ends

* Black-box entry subcircuit for sky130_fd_sc_hd__nor4_4 abstract view
.subckt sky130_fd_sc_hd__nor4_4 A B C D Y VGND VPWR
.ends

* Black-box entry subcircuit for sky130_fd_sc_hd__nand4_4 abstract view
.subckt sky130_fd_sc_hd__nand4_4 A B C D Y VGND VPWR
.ends

* Black-box entry subcircuit for sky130_fd_sc_hd__a22oi_4 abstract view
.subckt sky130_fd_sc_hd__a22oi_4 A1 A2 B1 B2 Y VGND VPWR
.ends

* Black-box entry subcircuit for sky130_fd_sc_hd__a32o_4 abstract view
.subckt sky130_fd_sc_hd__a32o_4 A1 A2 A3 B1 B2 X VGND VPWR
.ends

* Black-box entry subcircuit for sky130_fd_sc_hd__o32a_4 abstract view
.subckt sky130_fd_sc_hd__o32a_4 A1 A2 A3 B1 B2 X VGND VPWR
.ends

* Black-box entry subcircuit for sky130_fd_sc_hd__xor2_4 abstract view
.subckt sky130_fd_sc_hd__xor2_4 A B X VGND VPWR
.ends

* Black-box entry subcircuit for sky130_fd_sc_hd__clkbuf_16 abstract view
.subckt sky130_fd_sc_hd__clkbuf_16 A X VGND VPWR
.ends

* Black-box entry subcircuit for sky130_fd_sc_hd__nand3_4 abstract view
.subckt sky130_fd_sc_hd__nand3_4 A B C Y VGND VPWR
.ends

* Black-box entry subcircuit for sky130_fd_sc_hd__a2111oi_4 abstract view
.subckt sky130_fd_sc_hd__a2111oi_4 A1 A2 B1 C1 D1 Y VGND VPWR
.ends

* Black-box entry subcircuit for sky130_fd_sc_hd__a21boi_4 abstract view
.subckt sky130_fd_sc_hd__a21boi_4 A1 A2 B1_N Y VGND VPWR
.ends

* Black-box entry subcircuit for sky130_fd_sc_hd__buf_2 abstract view
.subckt sky130_fd_sc_hd__buf_2 A X VGND VPWR
.ends

* Black-box entry subcircuit for sky130_fd_sc_hd__o32ai_4 abstract view
.subckt sky130_fd_sc_hd__o32ai_4 A1 A2 A3 B1 B2 Y VGND VPWR
.ends

* Black-box entry subcircuit for sky130_fd_sc_hd__conb_1 abstract view
.subckt sky130_fd_sc_hd__conb_1 HI LO VGND VPWR
.ends

* Black-box entry subcircuit for sky130_fd_sc_hd__a41oi_4 abstract view
.subckt sky130_fd_sc_hd__a41oi_4 A1 A2 A3 A4 B1 Y VGND VPWR
.ends

.subckt usb_cdc_core clk_i enable_i inport_accept_o inport_data_i[0] inport_data_i[1]
+ inport_data_i[2] inport_data_i[3] inport_data_i[4] inport_data_i[5] inport_data_i[6]
+ inport_data_i[7] inport_valid_i outport_accept_i outport_data_o[0] outport_data_o[1]
+ outport_data_o[2] outport_data_o[3] outport_data_o[4] outport_data_o[5] outport_data_o[6]
+ outport_data_o[7] outport_valid_o rst_i utmi_data_in_i[0] utmi_data_in_i[1] utmi_data_in_i[2]
+ utmi_data_in_i[3] utmi_data_in_i[4] utmi_data_in_i[5] utmi_data_in_i[6] utmi_data_in_i[7]
+ utmi_data_out_o[0] utmi_data_out_o[1] utmi_data_out_o[2] utmi_data_out_o[3] utmi_data_out_o[4]
+ utmi_data_out_o[5] utmi_data_out_o[6] utmi_data_out_o[7] utmi_dmpulldown_o utmi_dppulldown_o
+ utmi_linestate_i[0] utmi_linestate_i[1] utmi_op_mode_o[0] utmi_op_mode_o[1] utmi_rxactive_i
+ utmi_rxerror_i utmi_rxvalid_i utmi_termselect_o utmi_txready_i utmi_txvalid_o utmi_xcvrselect_o[0]
+ utmi_xcvrselect_o[1] VPWR VGND
XANTENNA__4357__D _3362_/Y VGND VPWR sky130_fd_sc_hd__diode_2
XFILLER_39_222 VGND VPWR sky130_fd_sc_hd__decap_4
XFILLER_94_361 VGND VPWR sky130_fd_sc_hd__decap_12
XFILLER_36_19 VGND VPWR sky130_fd_sc_hd__fill_1
X_3155_ _3219_/A _3014_/Y _3088_/Y _3158_/B VGND VPWR sky130_fd_sc_hd__o21a_4
XFILLER_27_406 VGND VPWR sky130_fd_sc_hd__fill_2
XFILLER_82_545 VGND VPWR sky130_fd_sc_hd__decap_8
XFILLER_54_225 VGND VPWR sky130_fd_sc_hd__fill_2
XFILLER_39_299 VGND VPWR sky130_fd_sc_hd__fill_2
XFILLER_27_428 VGND VPWR sky130_fd_sc_hd__fill_2
X_3086_ _3015_/X _3360_/A _3071_/A _3105_/D _3086_/X VGND VPWR sky130_fd_sc_hd__or4_4
XANTENNA__2455__A _2456_/A VGND VPWR sky130_fd_sc_hd__diode_2
XANTENNA__2651__B1 _4522_/Q VGND VPWR sky130_fd_sc_hd__diode_2
XFILLER_22_133 VGND VPWR sky130_fd_sc_hd__fill_2
XANTENNA__2977__A2_N _2976_/X VGND VPWR sky130_fd_sc_hd__diode_2
XFILLER_23_689 VGND VPWR sky130_fd_sc_hd__fill_2
X_3988_ _3987_/Y _3979_/X _3929_/Y _3981_/X _3988_/X VGND VPWR sky130_fd_sc_hd__o22a_4
XANTENNA__2902__B _3491_/A VGND VPWR sky130_fd_sc_hd__diode_2
X_2939_ _2938_/X _2940_/B VGND VPWR sky130_fd_sc_hd__buf_1
XFILLER_50_486 VGND VPWR sky130_fd_sc_hd__decap_3
XFILLER_10_328 VGND VPWR sky130_fd_sc_hd__decap_4
XFILLER_22_199 VGND VPWR sky130_fd_sc_hd__fill_2
XANTENNA__3286__A _3243_/B VGND VPWR sky130_fd_sc_hd__diode_2
XANTENNA__4490__RESET_B _2307_/X VGND VPWR sky130_fd_sc_hd__diode_2
XANTENNA__2190__A _2188_/X VGND VPWR sky130_fd_sc_hd__diode_2
X_4609_ _4609_/D _4236_/A _2164_/X _4460_/CLK VGND VPWR sky130_fd_sc_hd__dfrtp_4
XFILLER_117_44 VGND VPWR sky130_fd_sc_hd__fill_2
XFILLER_104_422 VGND VPWR sky130_fd_sc_hd__decap_4
XANTENNA__3903__B1 _3902_/X VGND VPWR sky130_fd_sc_hd__diode_2
XFILLER_7_7 VGND VPWR sky130_fd_sc_hd__fill_2
XFILLER_117_66 VGND VPWR sky130_fd_sc_hd__decap_12
XFILLER_104_444 VGND VPWR sky130_fd_sc_hd__decap_8
XFILLER_104_433 VGND VPWR sky130_fd_sc_hd__decap_4
XFILLER_89_177 VGND VPWR sky130_fd_sc_hd__fill_2
XFILLER_77_317 VGND VPWR sky130_fd_sc_hd__fill_2
XFILLER_77_306 VGND VPWR sky130_fd_sc_hd__fill_2
XFILLER_89_199 VGND VPWR sky130_fd_sc_hd__decap_4
XFILLER_58_520 VGND VPWR sky130_fd_sc_hd__decap_4
XANTENNA__3131__A1 _3085_/A VGND VPWR sky130_fd_sc_hd__diode_2
XFILLER_73_501 VGND VPWR sky130_fd_sc_hd__decap_6
XFILLER_85_383 VGND VPWR sky130_fd_sc_hd__decap_3
XFILLER_73_545 VGND VPWR sky130_fd_sc_hd__decap_4
XANTENNA__2890__B1 _2996_/A VGND VPWR sky130_fd_sc_hd__diode_2
XFILLER_45_214 VGND VPWR sky130_fd_sc_hd__decap_6
XFILLER_45_269 VGND VPWR sky130_fd_sc_hd__decap_12
XANTENNA__2365__A _2362_/A VGND VPWR sky130_fd_sc_hd__diode_2
XFILLER_60_206 VGND VPWR sky130_fd_sc_hd__decap_8
XANTENNA__4092__C1 _4091_/Y VGND VPWR sky130_fd_sc_hd__diode_2
XFILLER_41_475 VGND VPWR sky130_fd_sc_hd__decap_6
XANTENNA__4578__RESET_B _2201_/X VGND VPWR sky130_fd_sc_hd__diode_2
XFILLER_14_667 VGND VPWR sky130_fd_sc_hd__decap_4
XANTENNA__3908__B _3904_/B VGND VPWR sky130_fd_sc_hd__diode_2
XANTENNA__4507__RESET_B _2286_/X VGND VPWR sky130_fd_sc_hd__diode_2
XFILLER_9_148 VGND VPWR sky130_fd_sc_hd__fill_2
XANTENNA__3198__A1 _3019_/Y VGND VPWR sky130_fd_sc_hd__diode_2
XFILLER_13_177 VGND VPWR sky130_fd_sc_hd__fill_2
XANTENNA__2812__B _2799_/A VGND VPWR sky130_fd_sc_hd__diode_2
XANTENNA__3196__A _3031_/X VGND VPWR sky130_fd_sc_hd__diode_2
XANTENNA__2531__C _2528_/X VGND VPWR sky130_fd_sc_hd__diode_2
XFILLER_5_310 VGND VPWR sky130_fd_sc_hd__decap_8
XFILLER_122_230 VGND VPWR sky130_fd_sc_hd__decap_12
XANTENNA__3643__B _3640_/B VGND VPWR sky130_fd_sc_hd__diode_2
XANTENNA__3370__A1 _3369_/A VGND VPWR sky130_fd_sc_hd__diode_2
XFILLER_96_626 VGND VPWR sky130_fd_sc_hd__decap_8
XANTENNA__3362__C _3362_/C VGND VPWR sky130_fd_sc_hd__diode_2
XFILLER_3_34 VGND VPWR sky130_fd_sc_hd__fill_2
XFILLER_3_78 VGND VPWR sky130_fd_sc_hd__fill_2
XFILLER_1_582 VGND VPWR sky130_fd_sc_hd__decap_12
XFILLER_76_350 VGND VPWR sky130_fd_sc_hd__fill_2
XFILLER_36_203 VGND VPWR sky130_fd_sc_hd__decap_8
XANTENNA__2275__A _2277_/A VGND VPWR sky130_fd_sc_hd__diode_2
XANTENNA__2881__B1 _2871_/B VGND VPWR sky130_fd_sc_hd__diode_2
XFILLER_91_397 VGND VPWR sky130_fd_sc_hd__fill_2
XFILLER_64_589 VGND VPWR sky130_fd_sc_hd__fill_2
XANTENNA__2706__C _2562_/X VGND VPWR sky130_fd_sc_hd__diode_2
XANTENNA__4193__C _4192_/Y VGND VPWR sky130_fd_sc_hd__diode_2
XFILLER_83_91 VGND VPWR sky130_fd_sc_hd__fill_2
X_3911_ _3005_/Y _2560_/X _3911_/X VGND VPWR sky130_fd_sc_hd__or2_4
X_3842_ _4530_/Q _3830_/X _3842_/X VGND VPWR sky130_fd_sc_hd__and2_4
XFILLER_20_615 VGND VPWR sky130_fd_sc_hd__decap_4
XANTENNA__3818__B _3804_/Y VGND VPWR sky130_fd_sc_hd__diode_2
XFILLER_20_637 VGND VPWR sky130_fd_sc_hd__decap_4
XFILLER_32_497 VGND VPWR sky130_fd_sc_hd__fill_2
X_3773_ _3769_/X _3772_/X _3720_/A _3773_/Y VGND VPWR sky130_fd_sc_hd__a21oi_4
X_2724_ _2724_/A _2544_/X _2724_/X VGND VPWR sky130_fd_sc_hd__or2_4
XFILLER_8_170 VGND VPWR sky130_fd_sc_hd__fill_2
XFILLER_118_569 VGND VPWR sky130_fd_sc_hd__decap_6
XFILLER_105_208 VGND VPWR sky130_fd_sc_hd__decap_12
X_2655_ _2680_/A _2654_/X _2655_/X VGND VPWR sky130_fd_sc_hd__or2_4
XFILLER_8_192 VGND VPWR sky130_fd_sc_hd__fill_2
XANTENNA__3834__A _4519_/Q VGND VPWR sky130_fd_sc_hd__diode_2
XANTENNA__3553__B _3541_/B VGND VPWR sky130_fd_sc_hd__diode_2
XANTENNA__4400__CLK _4407_/CLK VGND VPWR sky130_fd_sc_hd__diode_2
XFILLER_87_604 VGND VPWR sky130_fd_sc_hd__fill_2
X_4325_ _3323_/Y _2909_/A _2504_/X _4325_/CLK VGND VPWR sky130_fd_sc_hd__dfrtp_4
X_2586_ _2560_/X _3417_/D VGND VPWR sky130_fd_sc_hd__inv_8
XFILLER_113_252 VGND VPWR sky130_fd_sc_hd__decap_12
XFILLER_101_403 VGND VPWR sky130_fd_sc_hd__decap_12
XFILLER_99_497 VGND VPWR sky130_fd_sc_hd__fill_2
XFILLER_99_464 VGND VPWR sky130_fd_sc_hd__fill_2
XFILLER_87_637 VGND VPWR sky130_fd_sc_hd__decap_12
XFILLER_87_615 VGND VPWR sky130_fd_sc_hd__decap_3
XFILLER_59_306 VGND VPWR sky130_fd_sc_hd__fill_2
XFILLER_113_296 VGND VPWR sky130_fd_sc_hd__decap_8
XFILLER_101_436 VGND VPWR sky130_fd_sc_hd__fill_2
XFILLER_101_425 VGND VPWR sky130_fd_sc_hd__fill_2
XFILLER_86_125 VGND VPWR sky130_fd_sc_hd__fill_2
XFILLER_59_339 VGND VPWR sky130_fd_sc_hd__fill_2
X_4256_ _4232_/Y _4263_/B _4258_/B VGND VPWR sky130_fd_sc_hd__and2_4
XFILLER_95_670 VGND VPWR sky130_fd_sc_hd__fill_1
XFILLER_86_158 VGND VPWR sky130_fd_sc_hd__fill_2
XFILLER_67_361 VGND VPWR sky130_fd_sc_hd__fill_1
XFILLER_55_501 VGND VPWR sky130_fd_sc_hd__decap_12
X_4187_ _4137_/B _4146_/B _4187_/C _4187_/D _4187_/X VGND VPWR sky130_fd_sc_hd__or4_4
X_3207_ _3207_/A _3199_/Y _3207_/X VGND VPWR sky130_fd_sc_hd__or2_4
XFILLER_28_715 VGND VPWR sky130_fd_sc_hd__decap_8
XANTENNA__4550__CLK _4534_/CLK VGND VPWR sky130_fd_sc_hd__diode_2
XANTENNA__3664__A2 _3430_/A VGND VPWR sky130_fd_sc_hd__diode_2
X_3138_ _3227_/D _3095_/X _3138_/X VGND VPWR sky130_fd_sc_hd__and2_4
XFILLER_27_214 VGND VPWR sky130_fd_sc_hd__fill_2
XFILLER_27_225 VGND VPWR sky130_fd_sc_hd__fill_2
XFILLER_82_353 VGND VPWR sky130_fd_sc_hd__fill_1
XFILLER_43_707 VGND VPWR sky130_fd_sc_hd__decap_12
XFILLER_103_68 VGND VPWR sky130_fd_sc_hd__fill_1
XFILLER_70_515 VGND VPWR sky130_fd_sc_hd__decap_4
XFILLER_55_589 VGND VPWR sky130_fd_sc_hd__fill_2
XANTENNA__4074__C1 _4073_/Y VGND VPWR sky130_fd_sc_hd__diode_2
XANTENNA__2185__A _2183_/A VGND VPWR sky130_fd_sc_hd__diode_2
X_3069_ _3046_/X _3038_/Y _3011_/X _3010_/X _3069_/X VGND VPWR sky130_fd_sc_hd__or4_4
XPHY_927 VGND VPWR sky130_fd_sc_hd__tapvpwrvgnd_1
XPHY_916 VGND VPWR sky130_fd_sc_hd__tapvpwrvgnd_1
XPHY_905 VGND VPWR sky130_fd_sc_hd__tapvpwrvgnd_1
XPHY_1515 VGND VPWR sky130_fd_sc_hd__tapvpwrvgnd_1
XPHY_1504 VGND VPWR sky130_fd_sc_hd__tapvpwrvgnd_1
XPHY_938 VGND VPWR sky130_fd_sc_hd__tapvpwrvgnd_1
XPHY_949 VGND VPWR sky130_fd_sc_hd__tapvpwrvgnd_1
XANTENNA__2913__A _3319_/A VGND VPWR sky130_fd_sc_hd__diode_2
XFILLER_11_615 VGND VPWR sky130_fd_sc_hd__decap_3
XFILLER_23_442 VGND VPWR sky130_fd_sc_hd__fill_2
XFILLER_23_475 VGND VPWR sky130_fd_sc_hd__fill_2
XPHY_1548 VGND VPWR sky130_fd_sc_hd__tapvpwrvgnd_1
XPHY_1537 VGND VPWR sky130_fd_sc_hd__tapvpwrvgnd_1
XPHY_1526 VGND VPWR sky130_fd_sc_hd__tapvpwrvgnd_1
XANTENNA__4600__RESET_B _2176_/X VGND VPWR sky130_fd_sc_hd__diode_2
XPHY_1559 VGND VPWR sky130_fd_sc_hd__tapvpwrvgnd_1
XANTENNA__4550__D _3907_/X VGND VPWR sky130_fd_sc_hd__diode_2
XFILLER_7_608 VGND VPWR sky130_fd_sc_hd__fill_2
XFILLER_109_547 VGND VPWR sky130_fd_sc_hd__fill_2
XFILLER_6_129 VGND VPWR sky130_fd_sc_hd__fill_2
XFILLER_12_32 VGND VPWR sky130_fd_sc_hd__decap_12
XFILLER_88_69 VGND VPWR sky130_fd_sc_hd__fill_2
XANTENNA__3463__B _3463_/B VGND VPWR sky130_fd_sc_hd__diode_2
XFILLER_2_346 VGND VPWR sky130_fd_sc_hd__decap_8
XFILLER_120_701 VGND VPWR sky130_fd_sc_hd__fill_1
XANTENNA__4278__C _4278_/C VGND VPWR sky130_fd_sc_hd__diode_2
XFILLER_77_147 VGND VPWR sky130_fd_sc_hd__fill_2
XFILLER_77_136 VGND VPWR sky130_fd_sc_hd__fill_2
XFILLER_58_350 VGND VPWR sky130_fd_sc_hd__fill_2
XANTENNA__4301__B1 _4300_/Y VGND VPWR sky130_fd_sc_hd__diode_2
XFILLER_86_681 VGND VPWR sky130_fd_sc_hd__fill_2
XFILLER_58_372 VGND VPWR sky130_fd_sc_hd__fill_2
XFILLER_37_40 VGND VPWR sky130_fd_sc_hd__fill_2
XFILLER_18_203 VGND VPWR sky130_fd_sc_hd__decap_8
XANTENNA__2807__B _2666_/X VGND VPWR sky130_fd_sc_hd__diode_2
XFILLER_46_556 VGND VPWR sky130_fd_sc_hd__decap_3
XFILLER_37_62 VGND VPWR sky130_fd_sc_hd__decap_4
XFILLER_18_258 VGND VPWR sky130_fd_sc_hd__decap_4
XFILLER_61_526 VGND VPWR sky130_fd_sc_hd__fill_2
XANTENNA__2526__C _2526_/C VGND VPWR sky130_fd_sc_hd__diode_2
XFILLER_46_578 VGND VPWR sky130_fd_sc_hd__fill_2
XFILLER_61_559 VGND VPWR sky130_fd_sc_hd__fill_2
XFILLER_61_537 VGND VPWR sky130_fd_sc_hd__decap_4
XANTENNA__2823__A _2796_/A VGND VPWR sky130_fd_sc_hd__diode_2
XFILLER_53_72 VGND VPWR sky130_fd_sc_hd__fill_2
XFILLER_41_250 VGND VPWR sky130_fd_sc_hd__decap_3
XANTENNA__3919__A _4318_/Q VGND VPWR sky130_fd_sc_hd__diode_2
XANTENNA__4080__A2 _4056_/X VGND VPWR sky130_fd_sc_hd__diode_2
XANTENNA__3638__B _3625_/B VGND VPWR sky130_fd_sc_hd__diode_2
XANTENNA__4341__RESET_B _2485_/X VGND VPWR sky130_fd_sc_hd__diode_2
XFILLER_14_497 VGND VPWR sky130_fd_sc_hd__fill_2
XANTENNA__4460__D _4522_/Q VGND VPWR sky130_fd_sc_hd__diode_2
XANTENNA__4423__CLK _4423_/CLK VGND VPWR sky130_fd_sc_hd__diode_2
XFILLER_6_663 VGND VPWR sky130_fd_sc_hd__fill_2
XFILLER_6_652 VGND VPWR sky130_fd_sc_hd__fill_2
XFILLER_115_528 VGND VPWR sky130_fd_sc_hd__fill_2
XANTENNA__3654__A _3554_/A VGND VPWR sky130_fd_sc_hd__diode_2
X_2440_ _2443_/A _2440_/X VGND VPWR sky130_fd_sc_hd__buf_1
XFILLER_108_591 VGND VPWR sky130_fd_sc_hd__decap_4
XANTENNA__3343__A1 _3330_/X VGND VPWR sky130_fd_sc_hd__diode_2
XFILLER_5_184 VGND VPWR sky130_fd_sc_hd__fill_2
XANTENNA__3894__A2 _3883_/X VGND VPWR sky130_fd_sc_hd__diode_2
XFILLER_69_615 VGND VPWR sky130_fd_sc_hd__decap_12
XANTENNA__4188__C _4188_/C VGND VPWR sky130_fd_sc_hd__diode_2
X_2371_ _2367_/X _2371_/X VGND VPWR sky130_fd_sc_hd__buf_1
XFILLER_69_648 VGND VPWR sky130_fd_sc_hd__fill_2
XANTENNA__4573__CLK _4574_/CLK VGND VPWR sky130_fd_sc_hd__diode_2
X_4110_ _3915_/Y _4562_/Q _3915_/Y _4562_/Q _4110_/X VGND VPWR sky130_fd_sc_hd__a2bb2o_4
XFILLER_96_456 VGND VPWR sky130_fd_sc_hd__fill_2
XFILLER_84_629 VGND VPWR sky130_fd_sc_hd__decap_12
XFILLER_84_618 VGND VPWR sky130_fd_sc_hd__fill_2
X_4041_ _4041_/A _4039_/B _4041_/Y VGND VPWR sky130_fd_sc_hd__nor2_4
XFILLER_94_90 VGND VPWR sky130_fd_sc_hd__fill_2
XFILLER_92_640 VGND VPWR sky130_fd_sc_hd__fill_1
XFILLER_76_180 VGND VPWR sky130_fd_sc_hd__decap_12
XFILLER_92_684 VGND VPWR sky130_fd_sc_hd__fill_2
XFILLER_24_206 VGND VPWR sky130_fd_sc_hd__decap_4
XANTENNA__4429__RESET_B _2379_/X VGND VPWR sky130_fd_sc_hd__diode_2
XFILLER_17_280 VGND VPWR sky130_fd_sc_hd__decap_3
XANTENNA__2733__A _2733_/A VGND VPWR sky130_fd_sc_hd__diode_2
XANTENNA__3548__B _3546_/Y VGND VPWR sky130_fd_sc_hd__diode_2
XFILLER_60_592 VGND VPWR sky130_fd_sc_hd__decap_8
XFILLER_60_581 VGND VPWR sky130_fd_sc_hd__fill_2
X_3825_ _3824_/X _3904_/B VGND VPWR sky130_fd_sc_hd__buf_1
XANTENNA__4370__D _3662_/X VGND VPWR sky130_fd_sc_hd__diode_2
XFILLER_20_467 VGND VPWR sky130_fd_sc_hd__fill_2
XFILLER_118_311 VGND VPWR sky130_fd_sc_hd__fill_2
X_3756_ _2658_/Y _2659_/X _4525_/Q _2650_/Y _3759_/A VGND VPWR sky130_fd_sc_hd__o22a_4
XANTENNA__2947__A1_N _4428_/Q VGND VPWR sky130_fd_sc_hd__diode_2
X_2707_ _2707_/A _2706_/X _2707_/X VGND VPWR sky130_fd_sc_hd__and2_4
X_3687_ _3687_/A _3687_/Y VGND VPWR sky130_fd_sc_hd__inv_8
XANTENNA__3564__A _3506_/A VGND VPWR sky130_fd_sc_hd__diode_2
X_2638_ _3704_/A _2638_/Y VGND VPWR sky130_fd_sc_hd__inv_8
XANTENNA__3885__A2 _3883_/X VGND VPWR sky130_fd_sc_hd__diode_2
XFILLER_102_712 VGND VPWR sky130_fd_sc_hd__decap_12
XFILLER_99_250 VGND VPWR sky130_fd_sc_hd__fill_2
X_2569_ _2568_/B _2562_/X _2566_/X _2705_/B _2569_/X VGND VPWR sky130_fd_sc_hd__a211o_4
XFILLER_59_114 VGND VPWR sky130_fd_sc_hd__fill_2
X_4308_ _4247_/A _2707_/A _4307_/Y _4308_/X VGND VPWR sky130_fd_sc_hd__and3_4
XFILLER_101_266 VGND VPWR sky130_fd_sc_hd__decap_4
XFILLER_87_467 VGND VPWR sky130_fd_sc_hd__fill_2
XFILLER_75_629 VGND VPWR sky130_fd_sc_hd__fill_2
XFILLER_59_169 VGND VPWR sky130_fd_sc_hd__fill_2
X_4239_ _4234_/Y _4368_/Q _4249_/A _4238_/X _4239_/X VGND VPWR sky130_fd_sc_hd__a211o_4
XFILLER_101_277 VGND VPWR sky130_fd_sc_hd__fill_2
XFILLER_87_489 VGND VPWR sky130_fd_sc_hd__fill_2
XANTENNA__2908__A _2886_/X VGND VPWR sky130_fd_sc_hd__diode_2
XFILLER_83_640 VGND VPWR sky130_fd_sc_hd__fill_2
XFILLER_74_27 VGND VPWR sky130_fd_sc_hd__decap_4
XFILLER_55_320 VGND VPWR sky130_fd_sc_hd__fill_2
XANTENNA__2845__B1 _2844_/X VGND VPWR sky130_fd_sc_hd__diode_2
XFILLER_28_534 VGND VPWR sky130_fd_sc_hd__decap_12
XANTENNA__4545__D _3896_/X VGND VPWR sky130_fd_sc_hd__diode_2
XFILLER_70_312 VGND VPWR sky130_fd_sc_hd__fill_2
XANTENNA__4047__C1 _4046_/Y VGND VPWR sky130_fd_sc_hd__diode_2
XFILLER_28_578 VGND VPWR sky130_fd_sc_hd__fill_2
XFILLER_43_548 VGND VPWR sky130_fd_sc_hd__fill_1
XPHY_702 VGND VPWR sky130_fd_sc_hd__tapvpwrvgnd_1
XANTENNA__3739__A _3671_/X VGND VPWR sky130_fd_sc_hd__diode_2
XANTENNA__2643__A _4520_/Q VGND VPWR sky130_fd_sc_hd__diode_2
XFILLER_90_15 VGND VPWR sky130_fd_sc_hd__decap_3
XFILLER_70_378 VGND VPWR sky130_fd_sc_hd__decap_3
XPHY_735 VGND VPWR sky130_fd_sc_hd__tapvpwrvgnd_1
XPHY_713 VGND VPWR sky130_fd_sc_hd__tapvpwrvgnd_1
XPHY_724 VGND VPWR sky130_fd_sc_hd__tapvpwrvgnd_1
XPHY_1323 VGND VPWR sky130_fd_sc_hd__tapvpwrvgnd_1
XPHY_1312 VGND VPWR sky130_fd_sc_hd__tapvpwrvgnd_1
XPHY_1301 VGND VPWR sky130_fd_sc_hd__tapvpwrvgnd_1
XFILLER_90_48 VGND VPWR sky130_fd_sc_hd__decap_12
XANTENNA__3458__B _3458_/B VGND VPWR sky130_fd_sc_hd__diode_2
XPHY_768 VGND VPWR sky130_fd_sc_hd__tapvpwrvgnd_1
XPHY_757 VGND VPWR sky130_fd_sc_hd__tapvpwrvgnd_1
XPHY_746 VGND VPWR sky130_fd_sc_hd__tapvpwrvgnd_1
XFILLER_11_423 VGND VPWR sky130_fd_sc_hd__decap_4
XFILLER_23_261 VGND VPWR sky130_fd_sc_hd__decap_12
XPHY_1356 VGND VPWR sky130_fd_sc_hd__tapvpwrvgnd_1
XPHY_1345 VGND VPWR sky130_fd_sc_hd__tapvpwrvgnd_1
XPHY_1334 VGND VPWR sky130_fd_sc_hd__tapvpwrvgnd_1
XANTENNA__4446__CLK _4446_/CLK VGND VPWR sky130_fd_sc_hd__diode_2
XPHY_779 VGND VPWR sky130_fd_sc_hd__tapvpwrvgnd_1
XFILLER_109_311 VGND VPWR sky130_fd_sc_hd__decap_4
XPHY_1389 VGND VPWR sky130_fd_sc_hd__tapvpwrvgnd_1
XPHY_1378 VGND VPWR sky130_fd_sc_hd__tapvpwrvgnd_1
XPHY_1367 VGND VPWR sky130_fd_sc_hd__tapvpwrvgnd_1
XFILLER_7_449 VGND VPWR sky130_fd_sc_hd__fill_2
XFILLER_11_489 VGND VPWR sky130_fd_sc_hd__fill_2
XANTENNA__3177__C _3097_/X VGND VPWR sky130_fd_sc_hd__diode_2
XANTENNA__3474__A _3483_/A VGND VPWR sky130_fd_sc_hd__diode_2
XFILLER_3_611 VGND VPWR sky130_fd_sc_hd__fill_2
XANTENNA__4596__CLK _4596_/CLK VGND VPWR sky130_fd_sc_hd__diode_2
XFILLER_3_622 VGND VPWR sky130_fd_sc_hd__decap_4
XFILLER_2_110 VGND VPWR sky130_fd_sc_hd__decap_3
XFILLER_2_121 VGND VPWR sky130_fd_sc_hd__fill_1
XANTENNA__3193__B _3186_/X VGND VPWR sky130_fd_sc_hd__diode_2
XFILLER_105_550 VGND VPWR sky130_fd_sc_hd__fill_2
XFILLER_2_154 VGND VPWR sky130_fd_sc_hd__fill_2
XFILLER_2_165 VGND VPWR sky130_fd_sc_hd__decap_12
XFILLER_120_520 VGND VPWR sky130_fd_sc_hd__decap_6
XANTENNA__3876__A2 _3869_/X VGND VPWR sky130_fd_sc_hd__diode_2
XFILLER_105_594 VGND VPWR sky130_fd_sc_hd__fill_2
XANTENNA__2818__A _2818_/A VGND VPWR sky130_fd_sc_hd__diode_2
XANTENNA__3089__B1 _3055_/X VGND VPWR sky130_fd_sc_hd__diode_2
XFILLER_19_512 VGND VPWR sky130_fd_sc_hd__decap_12
XFILLER_93_448 VGND VPWR sky130_fd_sc_hd__fill_2
XFILLER_74_640 VGND VPWR sky130_fd_sc_hd__fill_1
XANTENNA__2537__B _3818_/A VGND VPWR sky130_fd_sc_hd__diode_2
XFILLER_19_556 VGND VPWR sky130_fd_sc_hd__fill_2
XANTENNA__4455__D _2671_/A VGND VPWR sky130_fd_sc_hd__diode_2
XFILLER_46_375 VGND VPWR sky130_fd_sc_hd__decap_12
XANTENNA__4593__RESET_B _2184_/X VGND VPWR sky130_fd_sc_hd__diode_2
XANTENNA__4522__RESET_B _2269_/X VGND VPWR sky130_fd_sc_hd__diode_2
XANTENNA__3649__A _3581_/A VGND VPWR sky130_fd_sc_hd__diode_2
XFILLER_64_93 VGND VPWR sky130_fd_sc_hd__decap_8
XFILLER_61_367 VGND VPWR sky130_fd_sc_hd__decap_4
XFILLER_21_209 VGND VPWR sky130_fd_sc_hd__fill_2
XANTENNA__3800__A2 _3785_/X VGND VPWR sky130_fd_sc_hd__diode_2
XFILLER_42_581 VGND VPWR sky130_fd_sc_hd__fill_2
XANTENNA__4109__B1_N _4108_/X VGND VPWR sky130_fd_sc_hd__diode_2
XFILLER_9_22 VGND VPWR sky130_fd_sc_hd__decap_8
XFILLER_9_44 VGND VPWR sky130_fd_sc_hd__fill_2
XANTENNA__2553__A _4620_/D VGND VPWR sky130_fd_sc_hd__diode_2
XFILLER_119_108 VGND VPWR sky130_fd_sc_hd__fill_2
XFILLER_9_66 VGND VPWR sky130_fd_sc_hd__decap_3
X_3610_ _4392_/Q _3610_/B _3610_/X VGND VPWR sky130_fd_sc_hd__or2_4
XANTENNA__3365__B1_N _3369_/B VGND VPWR sky130_fd_sc_hd__diode_2
X_4590_ _4590_/D _4185_/A _2187_/X _4595_/CLK VGND VPWR sky130_fd_sc_hd__dfrtp_4
X_3541_ _3513_/A _3541_/B _3542_/C VGND VPWR sky130_fd_sc_hd__and2_4
XFILLER_115_314 VGND VPWR sky130_fd_sc_hd__fill_2
XFILLER_115_303 VGND VPWR sky130_fd_sc_hd__fill_2
XANTENNA__3384__A _3397_/A VGND VPWR sky130_fd_sc_hd__diode_2
XFILLER_115_347 VGND VPWR sky130_fd_sc_hd__decap_12
X_3472_ _3486_/B _3479_/B VGND VPWR sky130_fd_sc_hd__buf_1
XANTENNA__3316__A1 _3251_/A VGND VPWR sky130_fd_sc_hd__diode_2
XFILLER_50_3 VGND VPWR sky130_fd_sc_hd__fill_2
XANTENNA__4199__B _4199_/B VGND VPWR sky130_fd_sc_hd__diode_2
X_2423_ _2419_/A _2423_/X VGND VPWR sky130_fd_sc_hd__buf_1
XANTENNA__3316__B2 _3248_/A VGND VPWR sky130_fd_sc_hd__diode_2
XFILLER_69_412 VGND VPWR sky130_fd_sc_hd__decap_6
X_2354_ _2358_/A _2354_/X VGND VPWR sky130_fd_sc_hd__buf_1
XANTENNA__3831__B _3830_/X VGND VPWR sky130_fd_sc_hd__diode_2
XFILLER_69_456 VGND VPWR sky130_fd_sc_hd__fill_2
XFILLER_57_618 VGND VPWR sky130_fd_sc_hd__fill_2
X_2285_ _2283_/A _2285_/X VGND VPWR sky130_fd_sc_hd__buf_1
XFILLER_69_489 VGND VPWR sky130_fd_sc_hd__fill_2
XANTENNA__2728__A _4500_/Q VGND VPWR sky130_fd_sc_hd__diode_2
XANTENNA__4319__CLK _4323_/CLK VGND VPWR sky130_fd_sc_hd__diode_2
XFILLER_84_459 VGND VPWR sky130_fd_sc_hd__decap_4
XANTENNA__2827__B1 _2783_/Y VGND VPWR sky130_fd_sc_hd__diode_2
XFILLER_56_139 VGND VPWR sky130_fd_sc_hd__fill_2
XFILLER_37_331 VGND VPWR sky130_fd_sc_hd__fill_2
XFILLER_37_320 VGND VPWR sky130_fd_sc_hd__fill_2
X_4024_ _4564_/Q _4024_/B _4024_/Y VGND VPWR sky130_fd_sc_hd__nor2_4
XANTENNA__4365__D _3401_/Y VGND VPWR sky130_fd_sc_hd__diode_2
XANTENNA__4292__A2 _4284_/X VGND VPWR sky130_fd_sc_hd__diode_2
XFILLER_37_364 VGND VPWR sky130_fd_sc_hd__fill_2
XFILLER_37_353 VGND VPWR sky130_fd_sc_hd__decap_3
XFILLER_52_334 VGND VPWR sky130_fd_sc_hd__fill_2
XFILLER_25_548 VGND VPWR sky130_fd_sc_hd__fill_1
XFILLER_25_559 VGND VPWR sky130_fd_sc_hd__fill_2
XANTENNA__3559__A _3559_/A VGND VPWR sky130_fd_sc_hd__diode_2
XFILLER_80_676 VGND VPWR sky130_fd_sc_hd__decap_12
XANTENNA__4469__CLK _4446_/CLK VGND VPWR sky130_fd_sc_hd__diode_2
XFILLER_12_209 VGND VPWR sky130_fd_sc_hd__fill_1
XANTENNA__4044__A2 _4037_/X VGND VPWR sky130_fd_sc_hd__diode_2
XFILLER_100_36 VGND VPWR sky130_fd_sc_hd__decap_4
XFILLER_100_25 VGND VPWR sky130_fd_sc_hd__fill_2
XANTENNA__2463__A _2460_/X VGND VPWR sky130_fd_sc_hd__diode_2
X_3808_ _3808_/A _3805_/X _3808_/X VGND VPWR sky130_fd_sc_hd__or2_4
XANTENNA__3004__B1 _2996_/A VGND VPWR sky130_fd_sc_hd__diode_2
XFILLER_119_697 VGND VPWR sky130_fd_sc_hd__decap_4
X_3739_ _3671_/X _3739_/Y VGND VPWR sky130_fd_sc_hd__inv_8
XANTENNA__3294__A _3243_/B VGND VPWR sky130_fd_sc_hd__diode_2
XANTENNA__2910__B _2910_/B VGND VPWR sky130_fd_sc_hd__diode_2
XFILLER_118_196 VGND VPWR sky130_fd_sc_hd__fill_2
XFILLER_69_38 VGND VPWR sky130_fd_sc_hd__decap_8
XFILLER_121_306 VGND VPWR sky130_fd_sc_hd__decap_12
XFILLER_79_209 VGND VPWR sky130_fd_sc_hd__decap_4
XFILLER_121_339 VGND VPWR sky130_fd_sc_hd__fill_2
XFILLER_102_531 VGND VPWR sky130_fd_sc_hd__fill_2
XFILLER_102_520 VGND VPWR sky130_fd_sc_hd__fill_2
XFILLER_0_614 VGND VPWR sky130_fd_sc_hd__decap_6
XANTENNA__2638__A _3704_/A VGND VPWR sky130_fd_sc_hd__diode_2
XFILLER_85_59 VGND VPWR sky130_fd_sc_hd__fill_2
XFILLER_18_42 VGND VPWR sky130_fd_sc_hd__fill_2
XFILLER_28_342 VGND VPWR sky130_fd_sc_hd__fill_2
XFILLER_90_407 VGND VPWR sky130_fd_sc_hd__decap_8
XFILLER_16_515 VGND VPWR sky130_fd_sc_hd__decap_4
XFILLER_18_97 VGND VPWR sky130_fd_sc_hd__fill_1
XANTENNA__3469__A _3498_/A VGND VPWR sky130_fd_sc_hd__diode_2
XFILLER_71_665 VGND VPWR sky130_fd_sc_hd__fill_2
XFILLER_43_367 VGND VPWR sky130_fd_sc_hd__decap_3
XANTENNA__4035__A2 _4034_/B VGND VPWR sky130_fd_sc_hd__diode_2
XPHY_510 VGND VPWR sky130_fd_sc_hd__tapvpwrvgnd_1
XANTENNA__2373__A _2367_/X VGND VPWR sky130_fd_sc_hd__diode_2
XPHY_521 VGND VPWR sky130_fd_sc_hd__tapvpwrvgnd_1
XPHY_532 VGND VPWR sky130_fd_sc_hd__tapvpwrvgnd_1
XFILLER_24_581 VGND VPWR sky130_fd_sc_hd__decap_4
XPHY_543 VGND VPWR sky130_fd_sc_hd__tapvpwrvgnd_1
XPHY_1131 VGND VPWR sky130_fd_sc_hd__tapvpwrvgnd_1
XPHY_1120 VGND VPWR sky130_fd_sc_hd__tapvpwrvgnd_1
XANTENNA__3794__B2 _3792_/X VGND VPWR sky130_fd_sc_hd__diode_2
XANTENNA__3794__A1 _2684_/X VGND VPWR sky130_fd_sc_hd__diode_2
XANTENNA__3188__B _3220_/C VGND VPWR sky130_fd_sc_hd__diode_2
XFILLER_8_703 VGND VPWR sky130_fd_sc_hd__fill_2
XPHY_554 VGND VPWR sky130_fd_sc_hd__tapvpwrvgnd_1
XPHY_576 VGND VPWR sky130_fd_sc_hd__tapvpwrvgnd_1
XPHY_565 VGND VPWR sky130_fd_sc_hd__tapvpwrvgnd_1
XPHY_587 VGND VPWR sky130_fd_sc_hd__tapvpwrvgnd_1
XPHY_1175 VGND VPWR sky130_fd_sc_hd__tapvpwrvgnd_1
XPHY_1164 VGND VPWR sky130_fd_sc_hd__tapvpwrvgnd_1
XPHY_1153 VGND VPWR sky130_fd_sc_hd__tapvpwrvgnd_1
XPHY_1142 VGND VPWR sky130_fd_sc_hd__tapvpwrvgnd_1
XFILLER_11_275 VGND VPWR sky130_fd_sc_hd__fill_2
XPHY_598 VGND VPWR sky130_fd_sc_hd__tapvpwrvgnd_1
XFILLER_109_130 VGND VPWR sky130_fd_sc_hd__fill_2
XPHY_1197 VGND VPWR sky130_fd_sc_hd__tapvpwrvgnd_1
XPHY_1186 VGND VPWR sky130_fd_sc_hd__tapvpwrvgnd_1
XFILLER_7_224 VGND VPWR sky130_fd_sc_hd__fill_2
XANTENNA__4095__B1_N _4094_/X VGND VPWR sky130_fd_sc_hd__diode_2
XFILLER_50_62 VGND VPWR sky130_fd_sc_hd__decap_12
XFILLER_109_196 VGND VPWR sky130_fd_sc_hd__fill_2